Auto-Transcript Start Time:  11:02:58, 15 Jul 2026 South Africa Standard Time 
Current Directory: "C:\Users\Simon\Projects\MEng Electronics\Development of a Resistojet Thruster\2) Simulations\CFD"

              Welcome to ANSYS Fluent 2026 R1

              Copyright 2026 Synopsys, Inc. and ANSYS, Inc. All rights reserved.
              Unauthorized use, distribution or duplication is prohibited.
              This product is subject to U.S. laws governing export and re-export.
              For full Legal Notice, see documentation.

Build Time: Feb  2 2026 16:32:00 EST  Build Id: 10262  
 
Connected License Server List:	<Non FlexNet Publisher License Server (FNPLS)>

     --------------------------------------------------------------
     This is a student version of ANSYS FLUENT. Usage of this product
     license is limited to the terms and conditions specified in your ANSYS
     license form, additional terms section.
     --------------------------------------------------------------
Host spawning Node 0 on machine "SimonAsusLaptop" (win64).
Host waiting for connection from Node 0 at 127.0.0.1:55060 

Node 0 connecting to the Host ... connection established.

------------------------------------------------------------------------------------------
ID    Hostname         Core  O.S.         PID    CPU Model Name                          
------------------------------------------------------------------------------------------
n3    SimonAsusLaptop  4/20  Windows-x64  67796  12th Gen Intel(R) Core(TM) i7-12700H    
n2    SimonAsusLaptop  3/20  Windows-x64  69800  12th Gen Intel(R) Core(TM) i7-12700H    
n1    SimonAsusLaptop  2/20  Windows-x64  58348  12th Gen Intel(R) Core(TM) i7-12700H    
n0*   SimonAsusLaptop  1/20  Windows-x64  21548  12th Gen Intel(R) Core(TM) i7-12700H    
host  SimonAsusLaptop        Windows-x64  62920  12th Gen Intel(R) Core(TM) i7-12700H    

MPI Option Selected: intel
Selected system interconnect: default
------------------------------------------------------------------------------------------

Cleanup script file is C:\\Users\\Simon\\Projects\\MEng Electronics\\Development of a Resistojet Thruster\\2) Simulations\\CFD\\cleanup-fluent-SimonAsusLaptop-62920.bat

SimonAsusLaptop is already loaded (40.4066).                       Process affinity not being set.

Graphics driver currently in use: dx11


Posting ANSYS Product Improvement Program startup data
Done.

> (cx-gui-do cx-activate-item "MenuBar*ReadSubMenu*Case & Data...")
(cx-gui-do cx-set-file-dialog-entries "Select File" '( "Nozzle_axial.cas.h5") "CFF Case Files (*.cas.h5 )")
Fast-loading "C:\PROGRA~1\ANSYSI~1\ANSYSS~1\v261\fluent\fluent26.1.0\\addons\afd\lib\hdfio.bin"
Done.

Reading from SimonAsusLaptop:"C:/Users/Simon/Projects/MEng Electronics/Development of a Resistojet Thruster/2) Simulations/CFD/Nozzle_axial.cas.h5" in NODE0 mode ...
  Reading mesh ...
      487606 cells,     3 cell zones ...
         123178 mixed cells,  zone id: 2287
          71222 mixed cells,  zone id: 2292
         293206 mixed cells,  zone id: 2297
     2290794 faces,    12 face zones ...
           5376 polygonal wall faces,  zone id: 1969
           5376 polygonal wall faces,  zone id: 2
           1951 polygonal wall faces,  zone id: 1882
           1951 polygonal wall faces,  zone id: 1
            190 polygonal interior faces,  zone id: 999
            190 polygonal wall faces,  zone id: 48
           1543 polygonal wall faces,  zone id: 47
          26672 polygonal pressure-outlet faces,  zone id: 46
            618 polygonal pressure-inlet faces,  zone id: 42
        1345918 mixed interior faces,  zone id: 2299
         365279 mixed interior faces,  zone id: 2294
         535730 mixed interior faces,  zone id: 2289
     1431185 nodes,     1 node zone  ...
  Done.


Building...
     mesh
	auto partitioning mesh by Metis (fast, Laplace, model-weighted),
	distributing mesh
		pairs....,
		parts....,
		faces....,
		nodes....,
		shadow nodes....,
		cells....,
        bandwidth reduction using Reverse Cuthill-McKee: 79338/2335 = 33.9777
  Reading boundary layer flags ...
  Done.

     materials,
     interface,
     domains,
	mixture
     zones,
	internal-wall:1969-shadow
	nozzle-volume-vacuum-shadow
	internal-wall:1969
	nozzle-volume-vacuum
	outlet:999
	nozzle-wall
	nozzle:1
	vacuum-boundaries
	inlet
	interior--volume-vacuum
	interior--nozzle
	interior--volume-fluid
	volume-fluid
	volume-vacuum
	nozzle
     parallel,
Done.

Reading from SimonAsusLaptop:"C:/Users/Simon/Projects/MEng Electronics/Development of a Resistojet Thruster/2) Simulations/CFD/Nozzle_axial.dat.h5" in NODE0 mode ...


  Reading results.
Parallel variables...
Done.
(cx-use-window-id 51)
(cx-gui-do cx-set-list-tree-selections "NavigationPane*Frame2*Table1*List_Tree2" (list "Setup|Models|Viscous (Laminar)"))
(cx-gui-do cx-set-list-tree-selections "NavigationPane*Frame2*Table1*List_Tree2" (list "Setup|Models|Viscous (Laminar)"))
(cx-gui-do cx-activate-item "NavigationPane*Frame2*Table1*List_Tree2")
(cx-gui-do cx-set-list-tree-selections "NavigationPane*Frame2*Table1*List_Tree2" (list "Setup|Models|Viscous (Laminar)"))
(cx-gui-do cx-set-toggle-button2 "Viscous Model*Table1*ToggleBox1(Model)*Inviscid" #t)
(cx-gui-do cx-activate-item "Viscous Model*Table1*ToggleBox1(Model)*Inviscid")
(cx-gui-do cx-activate-item "Viscous Model*PanelButtons*PushButton1(OK)")
(cx-gui-do cx-set-list-tree-selections "NavigationPane*Frame2*Table1*List_Tree2" (list "Setup|Models|Viscous (Inviscid)"))
(cx-gui-do cx-set-list-tree-selections "NavigationPane*Frame2*Table1*List_Tree2" (list "Setup|Materials|Fluid|r134a-approx"))
(cx-gui-do cx-set-list-tree-selections "NavigationPane*Frame2*Table1*List_Tree2" (list "Setup|Materials|Fluid|r134a-approx"))
(cx-gui-do cx-activate-item "NavigationPane*Frame2*Table1*List_Tree2")
(cx-gui-do cx-set-list-tree-selections "NavigationPane*Frame2*Table1*List_Tree2" (list "Setup|Materials|Fluid|r134a-approx"))
(cx-gui-do cx-activate-item "Create/Edit Materials*PanelButtons*PushButton1(Close)")
(cx-gui-do cx-set-list-tree-selections "NavigationPane*Frame2*Table1*List_Tree2" (list "Setup|Boundary Conditions|Outlet|vacuum-boundaries (pressure-outlet, id=46)"))
(cx-gui-do cx-set-list-tree-selections "NavigationPane*Frame2*Table1*List_Tree2" (list "Setup|Boundary Conditions|Outlet|vacuum-boundaries (pressure-outlet, id=46)"))
(cx-gui-do cx-activate-item "NavigationPane*Frame2*Table1*List_Tree2")
(cx-gui-do cx-set-list-tree-selections "NavigationPane*Frame2*Table1*List_Tree2" (list "Setup|Boundary Conditions|Outlet|vacuum-boundaries (pressure-outlet, id=46)"))
(cx-gui-do cx-activate-tab-index "Pressure Outlet*Frame2*Frame2" 0)
(cx-gui-do cx-activate-tab-index "Pressure Outlet*Frame2*Frame2" 1)
(cx-gui-do cx-activate-tab-index "Pressure Outlet*Frame2*Frame2" 0)
(cx-gui-do cx-activate-tab-index "Pressure Outlet*Frame2*Frame2" 2)
(cx-gui-do cx-activate-tab-index "Pressure Outlet*Frame2*Frame2" 0)
(cx-gui-do cx-activate-tab-index "Pressure Outlet*Frame2*Frame2" 3)
(cx-gui-do cx-activate-tab-index "Pressure Outlet*Frame2*Frame2" 0)
(cx-gui-do cx-activate-tab-index "Pressure Outlet*Frame2*Frame2" 4)
(cx-gui-do cx-activate-tab-index "Pressure Outlet*Frame2*Frame2" 0)
(cx-gui-do cx-activate-tab-index "Pressure Outlet*Frame2*Frame2" 5)
(cx-gui-do cx-activate-tab-index "Pressure Outlet*Frame2*Frame2" 0)
(cx-gui-do cx-activate-tab-index "Pressure Outlet*Frame2*Frame2" 6)
(cx-gui-do cx-activate-tab-index "Pressure Outlet*Frame2*Frame2" 0)
(cx-gui-do cx-activate-tab-index "Pressure Outlet*Frame2*Frame2" 7)
(cx-gui-do cx-activate-tab-index "Pressure Outlet*Frame2*Frame2" 0)
(cx-gui-do cx-activate-tab-index "Pressure Outlet*Frame2*Frame2" 8)
(cx-gui-do cx-activate-tab-index "Pressure Outlet*Frame2*Frame2" 0)
(cx-gui-do cx-activate-item "Pressure Outlet*PanelButtons*PushButton2(Cancel)")
(cx-gui-do cx-set-list-tree-selections "NavigationPane*Frame2*Table1*List_Tree2" (list "Solution|Initialization"))
(cx-gui-do cx-set-list-tree-selections "NavigationPane*Frame2*Table1*List_Tree2" (list "Solution|Initialization"))
(cx-gui-do cx-set-list-tree-selections "NavigationPane*Frame2*Table1*List_Tree2" (list "Solution|Initialization"))
(cx-gui-do cx-activate-item "NavigationPane*Frame2*Table1*List_Tree2")
(cx-gui-do cx-set-list-tree-selections "NavigationPane*Frame2*Table1*List_Tree2" (list "Solution|Initialization"))
(cx-gui-do cx-activate-item "Solution Initialization*Table1*Frame9*PushButton1(Initialize)")
(cx-gui-do cx-activate-item "Solution Initialization*Table1*Frame9*PushButton1(Initialize)")
(cx-gui-do cx-activate-item "Question*OK")
(cx-gui-do cx-set-list-tree-selections "NavigationPane*Frame2*Table1*List_Tree2" (list "Solution|Run Calculation"))
(cx-gui-do cx-activate-item "Ribbon*Frame1*Frame5(Solution)*Table1*PushButton1(Run Calculation)")
(cx-gui-do cx-activate-item "Ribbon*Frame1*Frame5(Solution)*Table1*Table3(Run Calculation)*PushButton9(Calculate)")


  iter  continuity  x-velocity  y-velocity  z-velocity      energy     time/iter

Calculation complete.
(cx-gui-do cx-activate-item "Information*OK")
(cx-gui-do cx-activate-item "Ribbon*Frame1*Frame5(Solution)*Table1*PushButton1(Run Calculation)")
(cx-gui-do cx-set-integer-entry "Ribbon*Frame1*Frame5(Solution)*Table1*Table3(Run Calculation)*Table6*IntegerEntry16(No  of Iterations)" 500)
(cx-gui-do cx-activate-item "Ribbon*Frame1*Frame5(Solution)*Table1*Table3(Run Calculation)*Table6*IntegerEntry16(No  of Iterations)")
(cx-gui-do cx-activate-item "Ribbon*Frame1*Frame5(Solution)*Table1*Table3(Run Calculation)*PushButton9(Calculate)")


  iter  continuity  x-velocity  y-velocity  z-velocity      energy     time/iter


Error at Node 1: Divergence detected in AMG solverO
p
Error at Node 3: Divergence detected in AMG solvere
r
Error at Node 2: Divergence detected in AMG solvera
t
Error at Node 0: Divergence detected in AMG solveri
on stopped.
(cx-gui-do cx-set-list-tree-selections "NavigationPane*Frame2*Table1*List_Tree2" (list "Solution|Methods"))
(cx-gui-do cx-set-list-tree-selections "NavigationPane*Frame2*Table1*List_Tree2" (list "Solution|Methods"))
(cx-gui-do cx-set-list-tree-selections "NavigationPane*Frame2*Table1*List_Tree2" (list "Solution|Methods"))
(cx-gui-do cx-activate-item "NavigationPane*Frame2*Table1*List_Tree2")
(cx-gui-do cx-set-list-tree-selections "NavigationPane*Frame2*Table1*List_Tree2" (list "Solution|Methods"))
(cx-gui-do cx-set-list-selections "Solution Methods*Table1*Table3(Spatial Discretization)*DropDownList2(Flow)" '( 0))
(cx-gui-do cx-activate-item "Solution Methods*Table1*Table3(Spatial Discretization)*DropDownList2(Flow)")
(cx-gui-do cx-activate-item "Ribbon*Frame1*Frame5(Solution)*Table1*PushButton1(Run Calculation)")
(cx-gui-do cx-activate-item "Ribbon*Frame1*Frame5(Solution)*Table1*Table3(Run Calculation)*PushButton9(Calculate)")


  iter  continuity  x-velocity  y-velocity  z-velocity      energy     time/iter

Error at Node 2: Divergence detected in AMG solver

Error at Node 3: Divergence detected in AMG solver

Error at Node 0: Divergence detected in AMG solver

Error at Node 1: Divergence detected in AMG solver

Operation stopped.
(cx-gui-do cx-set-list-selections "Solution Methods*Table1*Table3(Spatial Discretization)*DropDownList2(Flow)" '( 1))
(cx-gui-do cx-activate-item "Solution Methods*Table1*Table3(Spatial Discretization)*DropDownList2(Flow)")
(cx-gui-do cx-set-list-tree-selections "NavigationPane*Frame2*Table1*List_Tree2" (list "Solution|Report Definitions"))
(cx-gui-do cx-set-list-tree-selections "NavigationPane*Frame2*Table1*List_Tree2" (list "Solution|Controls"))
(cx-gui-do cx-set-list-tree-selections "NavigationPane*Frame2*Table1*List_Tree2" (list "Solution|Controls"))
(cx-gui-do cx-set-list-tree-selections "NavigationPane*Frame2*Table1*List_Tree2" (list "Solution|Controls"))
(cx-gui-do cx-activate-item "NavigationPane*Frame2*Table1*List_Tree2")
(cx-gui-do cx-set-list-tree-selections "NavigationPane*Frame2*Table1*List_Tree2" (list "Solution|Controls"))
(cx-gui-do cx-set-real-entry-list "Solution Controls*Table1*Table1*Table1*RealEntry2(Courant Number)" '( 1))
(cx-gui-do cx-activate-item "Solution Controls*Table1*Table1*Table1*RealEntry2(Courant Number)")
(cx-gui-do cx-activate-item "Ribbon*Frame1*Frame5(Solution)*Table1*PushButton1(Run Calculation)")
(cx-gui-do cx-activate-item "Ribbon*Frame1*Frame5(Solution)*Table1*Table3(Run Calculation)*PushButton9(Calculate)")


  iter  continuity  x-velocity  y-velocity  z-velocity      energy     time/iter
(cx-use-window-id 51)
(build-popup-menu)

Error at Node 1: Divergence detected in AMG solver

Error at Node 3: Divergence detected in AMG solver

Error at Node 2: Divergence detected in AMG solver

Error at Node 0: Divergence detected in AMG solver

Operation stopped.
(cx-gui-do cx-set-real-entry-list "Solution Controls*Table1*Table1*Table1*RealEntry2(Courant Number)" '( 5))
(cx-gui-do cx-activate-item "Solution Controls*Table1*Table1*Table1*RealEntry2(Courant Number)")
(cx-use-window-id 51)
(cx-gui-do cx-set-list-tree-selections "NavigationPane*Frame2*Table1*List_Tree2" (list "Solution|Initialization"))
(cx-gui-do cx-set-list-tree-selections "NavigationPane*Frame2*Table1*List_Tree2" (list "Solution|Initialization"))
(cx-gui-do cx-set-list-tree-selections "NavigationPane*Frame2*Table1*List_Tree2" (list "Solution|Initialization"))
(cx-gui-do cx-activate-item "NavigationPane*Frame2*Table1*List_Tree2")
(cx-gui-do cx-set-list-tree-selections "NavigationPane*Frame2*Table1*List_Tree2" (list "Solution|Initialization"))
(cx-gui-do cx-set-toggle-button2 "Solution Initialization*Table1*ToggleBox3(Initialization Methods)*Hybrid  Initialization" #t)
(cx-gui-do cx-activate-item "Solution Initialization*Table1*ToggleBox3(Initialization Methods)*Hybrid  Initialization")
(cx-gui-do cx-activate-item "Ribbon*Frame1*Frame5(Solution)*Table1*PushButton1(Run Calculation)")
(cx-gui-do cx-activate-item "Ribbon*Frame1*Frame5(Solution)*Table1*Table3(Run Calculation)*PushButton9(Calculate)")


  iter  continuity  x-velocity  y-velocity  z-velocity      energy     time/iter
(cx-use-window-id 51)

Error at Node 2: Divergence detected in AMG solver

Error at Node 3: Divergence detected in AMG solver

Error at Node 0: Divergence detected in AMG solver

Error at Node 1: Divergence detected in AMG solver

Operation stopped.
(cx-gui-do cx-set-list-tree-selections "NavigationPane*Frame2*Table1*List_Tree2" (list "Setup|General"))
(cx-gui-do cx-set-list-tree-selections "NavigationPane*Frame2*Table1*List_Tree2" (list "Setup|General"))
(cx-gui-do cx-activate-item "NavigationPane*Frame2*Table1*List_Tree2")
(cx-gui-do cx-set-list-tree-selections "NavigationPane*Frame2*Table1*List_Tree2" (list "Setup|General"))
(cx-gui-do cx-activate-item "Ribbon*Frame1*Frame3(Physics)*Table1*Table3(Solver)*PushButton2(Operating Conditions)")
(cx-gui-do cx-activate-item "Operating Conditions*PanelButtons*PushButton1(OK)")
(cx-gui-do cx-set-list-tree-selections "NavigationPane*Frame2*Table1*List_Tree2" (list "Setup|Models|Viscous (Inviscid)"))
(cx-gui-do cx-set-list-tree-selections "NavigationPane*Frame2*Table1*List_Tree2" (list "Setup|Models|Viscous (Inviscid)"))
(cx-gui-do cx-activate-item "NavigationPane*Frame2*Table1*List_Tree2")
(cx-gui-do cx-set-list-tree-selections "NavigationPane*Frame2*Table1*List_Tree2" (list "Setup|Models|Viscous (Inviscid)"))
(cx-gui-do cx-set-toggle-button2 "Viscous Model*Table1*ToggleBox1(Model)*k-omega (2 eqn)" #t)
(cx-gui-do cx-activate-item "Viscous Model*Table1*ToggleBox1(Model)*k-omega (2 eqn)")
(cx-gui-do cx-activate-item "Viscous Model*PanelButtons*PushButton1(OK)")
(cx-gui-do cx-set-list-tree-selections "NavigationPane*Frame2*Table1*List_Tree2" (list "Solution|Calculation Activities"))
(cx-gui-do cx-set-list-tree-selections "NavigationPane*Frame2*Table1*List_Tree2" (list "Solution|Calculation Activities"))
(cx-gui-do cx-set-list-tree-selections "NavigationPane*Frame2*Table1*List_Tree2" (list "Solution|Calculation Activities"))
(cx-gui-do cx-activate-item "NavigationPane*Frame2*Table1*List_Tree2")
(cx-gui-do cx-set-list-tree-selections "NavigationPane*Frame2*Table1*List_Tree2" (list "Solution|Calculation Activities"))
(cx-gui-do cx-set-list-tree-selections "NavigationPane*Frame2*Table1*List_Tree2" (list "Solution|Initialization"))
(cx-gui-do cx-set-list-tree-selections "NavigationPane*Frame2*Table1*List_Tree2" (list "Solution|Initialization"))
(cx-gui-do cx-activate-item "NavigationPane*Frame2*Table1*List_Tree2")
(cx-gui-do cx-set-list-tree-selections "NavigationPane*Frame2*Table1*List_Tree2" (list "Solution|Initialization"))
(cx-gui-do cx-set-toggle-button2 "Solution Initialization*Table1*ToggleBox3(Initialization Methods)*Standard Initialization" #t)
(cx-gui-do cx-activate-item "Solution Initialization*Table1*ToggleBox3(Initialization Methods)*Standard Initialization")
(cx-gui-do cx-activate-item "Solution Initialization*Table1*Frame9*PushButton1(Initialize)")
(cx-gui-do cx-activate-item "Question*OK")

 turbulent viscosity limited to viscosity ratio of 1.000000e+05 in 416384 cells 
(cx-gui-do cx-activate-item "Ribbon*Frame1*Frame5(Solution)*Table1*Table3(Initialization)*PushButton6(Initialize)")
(cx-gui-do cx-activate-item "Question*Cancel")
(cx-gui-do cx-activate-item "Ribbon*Frame1*Frame5(Solution)*Table1*PushButton1(Run Calculation)")
(cx-gui-do cx-set-integer-entry "Ribbon*Frame1*Frame5(Solution)*Table1*Table3(Run Calculation)*Table6*IntegerEntry16(No  of Iterations)" 1000)
(cx-gui-do cx-activate-item "Ribbon*Frame1*Frame5(Solution)*Table1*Table3(Run Calculation)*Table6*IntegerEntry16(No  of Iterations)")
(cx-gui-do cx-activate-item "Ribbon*Frame1*Frame5(Solution)*Table1*Table3(Run Calculation)*PushButton9(Calculate)")


  iter  continuity  x-velocity  y-velocity  z-velocity      energy           k       omega     time/iter

 turbulent viscosity limited to viscosity ratio of 1.000000e+05 in 416384 cells 

 turbulent viscosity limited to viscosity ratio of 1.000000e+05 in 60339 cells 
     1  0.0000e+00  1.0000e+00  1.0000e+00  1.0000e+00  1.0000e+00  5.6381e-06  5.8682e+04  1:23:21  999

 turbulent viscosity limited to viscosity ratio of 1.000000e+05 in 43038 cells 
     2  1.0000e+00  9.0405e-01  9.0171e-01  9.0175e-01  1.0000e+00  4.4540e-04  6.3549e-02  1:21:35  998

 turbulent viscosity limited to viscosity ratio of 1.000000e+05 in 37697 cells 
     3  1.0000e+00  3.2309e-01  3.1081e-01  3.0976e-01  1.0000e+00  9.5516e-04  1.0272e-01  1:16:24  997

 turbulent viscosity limited to viscosity ratio of 1.000000e+05 in 35211 cells 
     4  6.9986e-01  3.6357e-01  3.7383e-01  3.7411e-01  6.8780e-01  9.2675e-04  1.1899e-01  1:12:25  996

 turbulent viscosity limited to viscosity ratio of 1.000000e+05 in 33536 cells 
     5  5.6195e-01  2.2263e-01  2.2156e-01  2.2236e-01  5.4462e-01  1.0369e-03  1.4508e-01  1:09:02  995

 turbulent viscosity limited to viscosity ratio of 1.000000e+05 in 31589 cells 
     6  3.9711e-01  9.8483e-02  8.5849e-02  8.5975e-02  3.7833e-01  1.2583e-03  1.4072e-01  1:06:24  994

 turbulent viscosity limited to viscosity ratio of 1.000000e+05 in 29642 cells 
     7  3.4187e-01  4.3157e-02  3.2049e-02  3.2105e-02  3.2358e-01  1.5806e-03  1.4105e-01  1:04:12  993

 turbulent viscosity limited to viscosity ratio of 1.000000e+05 in 27961 cells 
     8  3.0391e-01  3.7592e-02  1.6937e-02  1.6989e-02  2.8678e-01  2.4103e-03  1.5289e-01  1:02:30  992

 turbulent viscosity limited to viscosity ratio of 1.000000e+05 in 26089 cells 
     9  2.7060e-01  2.8348e-02  1.4956e-02  1.5009e-02  2.5487e-01  2.5968e-03  1.7004e-01  1:00:57  991

 turbulent viscosity limited to viscosity ratio of 1.000000e+05 in 23390 cells 
    10  2.4472e-01  2.2445e-02  1.3903e-02  1.3930e-02  2.3044e-01  3.3182e-03  1.7524e-01  1:00:20  990

 turbulent viscosity limited to viscosity ratio of 1.000000e+05 in 19834 cells 
    11  2.2711e-01  2.0677e-02  1.2374e-02  1.2390e-02  2.1421e-01  4.5520e-03  1.6955e-01  0:59:11  989

 turbulent viscosity limited to viscosity ratio of 1.000000e+05 in 16268 cells 

  iter  continuity  x-velocity  y-velocity  z-velocity      energy           k       omega     time/iter
    12  2.1525e-01  2.2163e-02  1.1249e-02  1.1252e-02  2.0345e-01  6.3436e-03  1.5564e-01  0:58:15  988

 turbulent viscosity limited to viscosity ratio of 1.000000e+05 in 13329 cells 
    13  2.0726e-01  3.1262e-02  1.0910e-02  1.0898e-02  1.9637e-01  8.6332e-03  1.3939e-01  0:57:27  987

 turbulent viscosity limited to viscosity ratio of 1.000000e+05 in 11735 cells 
    14  2.0242e-01  3.7135e-02  1.1209e-02  1.1180e-02  1.9226e-01  1.1127e-02  1.2580e-01  0:56:42  986

 turbulent viscosity limited to viscosity ratio of 1.000000e+05 in 10724 cells 
    15  2.0011e-01  4.5449e-02  1.1828e-02  1.1791e-02  1.9051e-01  1.3723e-02  1.1480e-01  0:55:56  985

 turbulent viscosity limited to viscosity ratio of 1.000000e+05 in 9685 cells 
    16  2.0026e-01  9.2392e-02  1.2546e-02  1.2510e-02  1.9108e-01  1.6128e-02  1.0569e-01  0:55:13  984

 turbulent viscosity limited to viscosity ratio of 1.000000e+05 in 8654 cells 
    17  2.0311e-01  1.1945e-01  1.3294e-02  1.3268e-02  1.9428e-01  1.8298e-02  9.8209e-02  0:54:27  983

 turbulent viscosity limited to viscosity ratio of 1.000000e+05 in 7711 cells 
    18  2.0653e-01  9.4423e-02  1.4037e-02  1.4183e-02  1.9791e-01  2.0350e-02  9.1607e-02  0:53:44  982

 turbulent viscosity limited to viscosity ratio of 1.000000e+05 in 6869 cells 
    19  2.0989e-01  7.6940e-02  1.4728e-02  1.4742e-02  2.0140e-01  2.2382e-02  8.5715e-02  0:52:56  981

 turbulent viscosity limited to viscosity ratio of 1.000000e+05 in 6061 cells 
    20  2.1574e-01  7.9650e-02  1.5637e-02  1.5452e-02  2.0734e-01  2.4358e-02  8.0498e-02  0:52:14  980

 turbulent viscosity limited to viscosity ratio of 1.000000e+05 in 5263 cells 
    21  2.2453e-01  6.5711e-02  1.6269e-02  1.6523e-02  2.1620e-01  2.6174e-02  7.5804e-02  0:51:38  979

 turbulent viscosity limited to viscosity ratio of 1.000000e+05 in 4572 cells 
    22  2.3642e-01  3.5785e-02  1.8331e-02  1.8546e-02  2.2817e-01  2.7641e-02  7.1300e-02  0:51:01  978

 turbulent viscosity limited to viscosity ratio of 1.000000e+05 in 4002 cells 

  iter  continuity  x-velocity  y-velocity  z-velocity      energy           k       omega     time/iter
    23  2.5649e-01  3.1198e-02  2.0171e-02  2.1378e-02  2.4826e-01  2.8769e-02  6.6947e-02  0:50:37  977

 turbulent viscosity limited to viscosity ratio of 1.000000e+05 in 3426 cells 
    24  2.8398e-01  2.9701e-02  2.6346e-02  2.4766e-02  2.7579e-01  2.9461e-02  6.2785e-02  0:50:18  976

 turbulent viscosity limited to viscosity ratio of 1.000000e+05 in 2918 cells 
    25  3.1724e-01  3.2350e-02  3.1007e-02  2.9287e-02  3.0906e-01  2.9829e-02  5.8762e-02  0:50:06  975

 turbulent viscosity limited to viscosity ratio of 1.000000e+05 in 2480 cells 
    26  3.5176e-01  3.4812e-02  3.3284e-02  3.5414e-02  3.4351e-01  3.0093e-02  5.4946e-02  0:50:03  974

 turbulent viscosity limited to viscosity ratio of 1.000000e+05 in 2123 cells 
    27  3.6904e-01  4.1446e-02  3.8610e-02  4.0765e-02  3.6073e-01  3.0269e-02  5.1320e-02  0:50:03  973

 turbulent viscosity limited to viscosity ratio of 1.000000e+05 in 1782 cells 
    28  3.7414e-01  4.4201e-02  4.5364e-02  4.3704e-02  3.6580e-01  3.0393e-02  4.7874e-02  0:50:22  972

 turbulent viscosity limited to viscosity ratio of 1.000000e+05 in 1502 cells 
    29  3.7791e-01  4.7400e-02  4.9386e-02  5.0817e-02  3.6959e-01  3.0582e-02  4.4644e-02  0:51:00  971

 turbulent viscosity limited to viscosity ratio of 1.000000e+05 in 1227 cells 
    30  3.8752e-01  5.2183e-02  5.4361e-02  5.4613e-02  3.7916e-01  3.0710e-02  4.1617e-02  0:51:23  970

 turbulent viscosity limited to viscosity ratio of 1.000000e+05 in 996 cells 
    31  4.0467e-01  4.5463e-02  7.3122e-02  6.9266e-02  3.9626e-01  3.0893e-02  3.8825e-02  0:51:44  969

 turbulent viscosity limited to viscosity ratio of 1.000000e+05 in 779 cells 
    32  4.2401e-01  4.0150e-02  8.7585e-02  9.1287e-02  4.1553e-01  3.1100e-02  3.6321e-02  0:51:52  968

 turbulent viscosity limited to viscosity ratio of 1.000000e+05 in 588 cells 
    33  4.4034e-01  3.0817e-02  1.1238e-01  1.1048e-01  4.3183e-01  3.1468e-02  3.4134e-02  0:52:11  967

 turbulent viscosity limited to viscosity ratio of 1.000000e+05 in 431 cells 

  iter  continuity  x-velocity  y-velocity  z-velocity      energy           k       omega     time/iter
    34  4.5458e-01  2.7269e-02  5.6960e-02  5.7265e-02  4.4605e-01  3.1952e-02  3.2243e-02  0:52:57  966

 turbulent viscosity limited to viscosity ratio of 1.000000e+05 in 310 cells 
    35  4.6641e-01  2.7829e-02  3.6257e-02  3.5926e-02  4.5802e-01  3.2614e-02  3.0336e-02  0:53:32  965

 turbulent viscosity limited to viscosity ratio of 1.000000e+05 in 219 cells 
    36  4.7838e-01  2.8186e-02  3.2731e-02  3.2856e-02  4.7004e-01  3.3492e-02  2.8795e-02  0:53:51  964

 turbulent viscosity limited to viscosity ratio of 1.000000e+05 in 137 cells 
    37  4.8849e-01  3.0194e-02  3.3295e-02  3.3068e-02  4.8020e-01  3.4747e-02  2.7558e-02  0:53:35  963

 turbulent viscosity limited to viscosity ratio of 1.000000e+05 in 79 cells 
    38  4.9835e-01  3.1742e-02  3.3621e-02  3.2416e-02  4.9009e-01  3.6368e-02  2.6597e-02  0:53:22  962

 turbulent viscosity limited to viscosity ratio of 1.000000e+05 in 37 cells 
    39  5.1077e-01  3.3483e-02  3.5021e-02  3.6722e-02  5.0248e-01  3.8477e-02  2.5908e-02  0:53:06  961

 turbulent viscosity limited to viscosity ratio of 1.000000e+05 in 8 cells 
    40  5.2887e-01  3.4678e-02  3.7589e-02  3.8389e-02  5.2044e-01  4.1152e-02  2.5479e-02  0:52:53  960
    41  5.5661e-01  3.5084e-02  4.0158e-02  3.8814e-02  5.4789e-01  4.4498e-02  2.5281e-02  0:52:42  959
    42  5.9424e-01  3.5231e-02  3.9747e-02  3.9982e-02  5.8503e-01  4.8729e-02  2.5281e-02  0:52:49  958
    43  6.3964e-01  3.4820e-02  4.6700e-02  4.7704e-02  6.2970e-01  5.3597e-02  2.5433e-02  0:52:53  957
    44  6.9965e-01  3.7478e-02  3.3463e-02  3.2770e-02  6.8862e-01  5.8814e-02  2.5744e-02  0:52:51  956

  iter  continuity  x-velocity  y-velocity  z-velocity      energy           k       omega     time/iter
    45  7.8308e-01  4.1076e-02  2.4640e-02  2.4895e-02  7.7047e-01  6.4114e-02  2.6113e-02  0:52:44  955
    46  8.9731e-01  4.6398e-02  2.1291e-02  2.1228e-02  8.8245e-01  6.9302e-02  2.6681e-02  0:52:11  954
    47  1.0460e+00  5.3123e-02  2.0800e-02  2.0824e-02  1.0280e+00  7.4120e-02  2.7373e-02  0:51:47  953
    48  1.2304e+00  6.1972e-02  2.0687e-02  2.0556e-02  1.2084e+00  7.8370e-02  2.8047e-02  0:51:10  952
    49  1.4550e+00  7.2890e-02  2.0807e-02  2.0800e-02  1.4277e+00  8.1994e-02  2.8721e-02  0:50:41  951
    50  1.7312e+00  8.6298e-02  2.1259e-02  2.1207e-02  1.6977e+00  8.4750e-02  2.9267e-02  0:50:13  950
    51  2.0463e+00  1.0268e-01  2.1634e-02  2.1046e-02  2.0059e+00  8.6552e-02  2.9601e-02  0:49:56  949
    52  2.3768e+00  1.2252e-01  2.1631e-02  2.2050e-02  2.3292e+00  8.7225e-02  2.9800e-02  0:49:48  948
    53  2.7097e+00  1.4619e-01  2.2370e-02  2.2941e-02  2.6551e+00  8.6744e-02  2.9812e-02  0:49:35  947
    54  3.0433e+00  1.7421e-01  2.1791e-02  2.1752e-02  2.9821e+00  8.5008e-02  2.9784e-02  0:49:32  946
    55  3.3796e+00  2.0698e-01  2.2682e-02  2.2651e-02  3.3123e+00  8.1914e-02  2.9585e-02  0:49:36  945

  iter  continuity  x-velocity  y-velocity  z-velocity      energy           k       omega     time/iter
    56  3.7223e+00  2.4481e-01  2.4541e-02  2.4732e-02  3.6492e+00  7.8002e-02  2.9381e-02  0:49:40  944
    57  4.0745e+00  2.8782e-01  2.8005e-02  2.8303e-02  3.9956e+00  7.4214e-02  2.9046e-02  0:50:07  943
    58  4.4377e+00  3.3603e-01  3.2488e-02  3.2928e-02  4.3530e+00  7.1205e-02  2.8757e-02  0:50:13  942
    59  4.8109e+00  3.8934e-01  3.8081e-02  3.8605e-02  4.7202e+00  6.9705e-02  2.8525e-02  0:50:19  941
    60  5.1899e+00  4.4745e-01  4.4705e-02  4.5349e-02  5.0929e+00  6.9073e-02  2.8239e-02  0:50:23  940
    61  5.5668e+00  5.0980e-01  5.2345e-02  5.3073e-02  5.4629e+00  6.8602e-02  2.8092e-02  0:50:44  939
    62  5.9279e+00  5.7542e-01  6.0964e-02  6.1873e-02  5.8168e+00  6.7472e-02  2.7726e-02  0:50:45  938
    63  6.2536e+00  6.4305e-01  7.0935e-02  7.2008e-02  6.1358e+00  6.6012e-02  2.7518e-02  0:50:44  937
    64  6.5279e+00  7.1142e-01  8.2421e-02  8.3614e-02  6.4044e+00  6.4167e-02  2.7251e-02  0:50:54  936
    65  6.7429e+00  7.7969e-01  9.5390e-02  9.6761e-02  6.6154e+00  6.2085e-02  2.7059e-02  0:50:56  935
    66  6.8979e+00  8.4719e-01  1.0952e-01  1.1110e-01  6.7681e+00  6.0512e-02  2.6924e-02  0:50:54  934

  iter  continuity  x-velocity  y-velocity  z-velocity      energy           k       omega     time/iter
    67  6.9981e+00  9.1311e-01  1.2452e-01  1.2631e-01  6.8673e+00  5.8870e-02  2.6694e-02  0:51:01  933
    68  7.0534e+00  9.7673e-01  1.3994e-01  1.4199e-01  6.9223e+00  5.7084e-02  2.6426e-02  0:50:57  932
    69  7.0738e+00  1.0371e+00  1.5550e-01  1.5781e-01  6.9429e+00  5.6283e-02  2.6371e-02  0:50:52  931
    70  7.0669e+00  1.0932e+00  1.7096e-01  1.7352e-01  6.9363e+00  5.6002e-02  2.6312e-02  0:50:55  930
    71  7.0357e+00  1.1440e+00  1.8598e-01  1.8878e-01  6.9055e+00  5.5247e-02  2.5993e-02  0:51:39  929

 time step reduced in 5 cells due to excessive temperature change
    72  6.9810e+00  1.1886e+00  2.0041e-01  2.0339e-01  6.8509e+00  5.4740e-02  2.5703e-02  0:51:39  928
    73  6.9007e+00  1.2260e+00  2.1403e-01  2.1717e-01  6.7710e+00  5.4998e-02  2.5482e-02  0:51:19  927

 time step reduced in 9 cells due to excessive temperature change
    74  6.7933e+00  1.2547e+00  2.2656e-01  2.2978e-01  6.6638e+00  5.5703e-02  2.5243e-02  0:50:35  926

 time step reduced in 13 cells due to excessive temperature change
    75  6.6574e+00  1.2732e+00  2.3802e-01  2.4125e-01  6.5278e+00  5.6970e-02  2.4861e-02  0:50:21  925

 time step reduced in 12 cells due to excessive temperature change
    76  6.4960e+00  1.2818e+00  2.4859e-01  2.5174e-01  6.3656e+00  5.8664e-02  2.4360e-02  0:50:49  924

 time step reduced in 4 cells due to excessive temperature change
    77  6.3050e+00  1.2805e+00  2.5838e-01  2.6136e-01  6.1731e+00  6.2193e-02  2.3988e-02  0:51:28  923

 time step reduced in 9 cells due to excessive temperature change

  iter  continuity  x-velocity  y-velocity  z-velocity      energy           k       omega     time/iter
    78  6.0755e+00  1.2695e+00  2.6733e-01  2.7009e-01  5.9420e+00  6.7766e-02  2.3581e-02  0:50:53  922

 time step reduced in 14 cells due to excessive temperature change
    79  5.7896e+00  1.2484e+00  2.7524e-01  2.7776e-01  5.6550e+00  7.5156e-02  2.3029e-02  0:50:30  921

 time step reduced in 21 cells due to excessive temperature change
    80  5.4404e+00  1.2165e+00  2.8165e-01  2.8394e-01  5.3055e+00  8.3978e-02  2.2496e-02  0:50:13  920

 time step reduced in 11 cells due to excessive temperature change
    81  5.0341e+00  1.1745e+00  2.8621e-01  2.8823e-01  4.8994e+00  9.3000e-02  2.1972e-02  0:51:45  919

 time step reduced in 8 cells due to excessive temperature change
    82  4.5808e+00  1.1217e+00  2.8851e-01  2.9026e-01  4.4464e+00  1.0018e-01  2.1268e-02  0:53:15  918

 time step reduced in 13 cells due to excessive temperature change
    83  4.0931e+00  1.0595e+00  2.8844e-01  2.8996e-01  3.9595e+00  1.0321e-01  2.0710e-02  0:53:06  917

 time step reduced in 17 cells due to excessive temperature change
    84  3.5833e+00  9.8969e-01  2.8598e-01  2.8739e-01  3.4514e+00  1.0290e-01  2.0103e-02  0:53:01  916

 time step reduced in 18 cells due to excessive temperature change
    85  3.0674e+00  9.1567e-01  2.8153e-01  2.8288e-01  2.9393e+00  1.0154e-01  1.9485e-02  0:52:32  915

 time step reduced in 16 cells due to excessive temperature change
    86  2.5927e+00  8.4120e-01  2.7509e-01  2.7632e-01  2.4725e+00  1.0021e-01  1.9013e-02  0:52:01  914

 time step reduced in 31 cells due to excessive temperature change
    87  2.2314e+00  7.7136e-01  2.6570e-01  2.6711e-01  2.1271e+00  9.6416e-02  1.8406e-02  0:51:47  913

 time step reduced in 20 cells due to excessive temperature change
    88  2.0731e+00  7.0902e-01  2.5471e-01  2.5615e-01  1.9951e+00  9.2626e-02  1.7954e-02  0:51:24  912

 time step reduced in 30 cells due to excessive temperature change

  iter  continuity  x-velocity  y-velocity  z-velocity      energy           k       omega     time/iter
    89  2.1718e+00  6.5526e-01  2.4335e-01  2.4483e-01  2.1231e+00  8.9673e-02  1.7466e-02  0:50:58  911

 time step reduced in 20 cells due to excessive temperature change
    90  2.4818e+00  6.1393e-01  2.3116e-01  2.3283e-01  2.4545e+00  8.6355e-02  1.7055e-02  0:50:39  910

 time step reduced in 35 cells due to excessive temperature change
    91  2.9082e+00  5.8824e-01  2.1852e-01  2.2044e-01  2.8918e+00  8.2988e-02  1.6664e-02  0:50:23  909

 time step reduced in 37 cells due to excessive temperature change
    92  3.3756e+00  5.7958e-01  2.0577e-01  2.0788e-01  3.3622e+00  7.9811e-02  1.6284e-02  0:50:19  908

 time step reduced in 33 cells due to excessive temperature change
    93  3.8341e+00  5.8650e-01  1.9310e-01  1.9543e-01  3.8187e+00  7.6752e-02  1.5910e-02  0:50:04  907

 time step reduced in 42 cells due to excessive temperature change
    94  4.2435e+00  6.0436e-01  1.8160e-01  1.8413e-01  4.2241e+00  7.3980e-02  1.5562e-02  0:49:58  906

 time step reduced in 10 cells due to excessive temperature change
    95  4.5955e+00  6.2802e-01  1.7173e-01  1.7444e-01  4.5710e+00  7.1347e-02  1.5247e-02  0:49:50  905

 time step reduced in 20 cells due to excessive temperature change
    96  4.8824e+00  6.5194e-01  1.6362e-01  1.6650e-01  4.8510e+00  6.8341e-02  1.4886e-02  0:52:03  904

 time step reduced in 16 cells due to excessive temperature change
    97  5.1139e+00  6.7405e-01  1.5787e-01  1.6086e-01  5.0738e+00  6.6013e-02  1.4585e-02  0:51:40  903

 time step reduced in 8 cells due to excessive temperature change
    98  5.2784e+00  6.9082e-01  1.5533e-01  1.5827e-01  5.2285e+00  6.3020e-02  1.4277e-02  0:51:35  902

 time step reduced in 7 cells due to excessive temperature change
    99  5.3475e+00  6.9966e-01  1.5636e-01  1.5921e-01  5.2906e+00  6.0237e-02  1.4081e-02  0:50:43  901

 time step reduced in 1 cells due to excessive temperature change

  iter  continuity  x-velocity  y-velocity  z-velocity      energy           k       omega     time/iter
   100  5.3453e+00  7.0016e-01  1.6005e-01  1.6284e-01  5.2822e+00  5.7595e-02  1.3868e-02  0:49:36  900

 time step reduced in 6 cells due to excessive temperature change
   101  5.2812e+00  6.9302e-01  1.6566e-01  1.6841e-01  5.2125e+00  5.5155e-02  1.3727e-02  0:48:36  899

 time step reduced in 1 cells due to excessive temperature change
   102  5.1458e+00  6.7748e-01  1.7245e-01  1.7515e-01  5.0733e+00  5.2777e-02  1.3591e-02  0:48:35  898

 time step reduced in 10 cells due to excessive temperature change
   103  4.9642e+00  6.5491e-01  1.7892e-01  1.8160e-01  4.8884e+00  5.0803e-02  1.3487e-02  0:47:53  897

 time step reduced in 2 cells due to excessive temperature change
   104  4.7504e+00  6.2649e-01  1.8407e-01  1.8674e-01  4.6709e+00  4.8820e-02  1.3418e-02  0:47:26  896

 time step reduced in 16 cells due to excessive temperature change
   105  4.5106e+00  5.9227e-01  1.8737e-01  1.9006e-01  4.4272e+00  4.6995e-02  1.3324e-02  0:47:15  895

 time step reduced in 7 cells due to excessive temperature change
   106  4.2644e+00  5.5391e-01  1.8852e-01  1.9115e-01  4.1759e+00  4.5589e-02  1.3235e-02  0:47:03  894

 time step reduced in 8 cells due to excessive temperature change
   107  4.0295e+00  5.1487e-01  1.8703e-01  1.8972e-01  3.9346e+00  4.3985e-02  1.3107e-02  0:46:59  893

 time step reduced in 7 cells due to excessive temperature change
   108  3.8204e+00  4.7670e-01  1.8296e-01  1.8565e-01  3.7174e+00  4.2626e-02  1.2961e-02  0:47:10  892

 time step reduced in 9 cells due to excessive temperature change
   109  3.6475e+00  4.4021e-01  1.7654e-01  1.7923e-01  3.5348e+00  4.1297e-02  1.2806e-02  0:47:24  891

 time step reduced in 6 cells due to excessive temperature change
   110  3.5140e+00  4.0623e-01  1.6802e-01  1.7069e-01  3.3902e+00  4.0110e-02  1.2634e-02  0:47:40  890

 time step reduced in 8 cells due to excessive temperature change

  iter  continuity  x-velocity  y-velocity  z-velocity      energy           k       omega     time/iter
   111  3.4164e+00  3.7652e-01  1.5779e-01  1.6050e-01  3.2807e+00  3.8931e-02  1.2457e-02  0:47:46  889

 time step reduced in 1 cells due to excessive temperature change
   112  3.3475e+00  3.5190e-01  1.4642e-01  1.4912e-01  3.2000e+00  3.7879e-02  1.2280e-02  0:47:51  888

 time step reduced in 5 cells due to excessive temperature change
   113  3.2956e+00  3.3270e-01  1.3438e-01  1.3709e-01  3.1371e+00  3.6716e-02  1.2124e-02  0:48:29  887
   114  3.2508e+00  3.1990e-01  1.2220e-01  1.2496e-01  3.0830e+00  3.5760e-02  1.1982e-02  0:48:52  886

 time step reduced in 1 cells due to excessive temperature change
   115  3.2062e+00  3.1311e-01  1.1054e-01  1.1330e-01  3.0306e+00  3.4763e-02  1.1864e-02  0:49:27  885
   116  3.1549e+00  3.1159e-01  9.9814e-02  1.0260e-01  2.9738e+00  3.3641e-02  1.1789e-02  0:49:10  884
   117  3.0933e+00  3.1538e-01  9.0408e-02  9.3155e-02  2.9089e+00  3.2767e-02  1.1764e-02  0:48:50  883
   118  3.0199e+00  3.2413e-01  8.2506e-02  8.5186e-02  2.8347e+00  3.1750e-02  1.1777e-02  0:48:48  882
   119  2.9363e+00  3.3656e-01  7.6054e-02  7.8641e-02  2.7525e+00  3.0885e-02  1.1781e-02  0:48:32  881
   120  2.8482e+00  3.5171e-01  7.1039e-02  7.3515e-02  2.6672e+00  2.9947e-02  1.1808e-02  0:48:21  880

 time step reduced in 2 cells due to excessive temperature change
   121  2.7618e+00  3.6863e-01  6.7335e-02  6.9566e-02  2.5848e+00  2.9098e-02  1.1794e-02  0:48:09  879

 Artificial walls on 5 faces (11.5% area) of pressure-inlet 42 to prevent fluid from flowing out of the boundary.

  iter  continuity  x-velocity  y-velocity  z-velocity      energy           k       omega     time/iter
   122  2.6799e+00  3.8647e-01  6.4798e-02  6.6799e-02  2.5080e+00  2.8310e-02  1.1783e-02  0:47:48  878

 Artificial walls on 26 faces (19.1% area) of pressure-inlet 42 to prevent fluid from flowing out of the boundary.

Divergence detected - temporarily reducing Courant number to 0.5
 and trying again...
   123  2.6037e+00  4.0450e-01  6.3288e-02  6.5046e-02  2.4377e+00  7.5385e-03  2.2351e-03  0:52:22  877

 Artificial walls on 28 faces (19.4% area) of pressure-inlet 42 to prevent fluid from flowing out of the boundary.
   124  2.5964e+00  4.0652e-01  6.2958e-02  6.4719e-02  2.4308e+00  7.5345e-03  2.2354e-03  0:50:51  876

 Artificial walls on 31 faces (22.0% area) of pressure-inlet 42 to prevent fluid from flowing out of the boundary.
   125  2.5893e+00  4.0856e-01  6.2695e-02  6.4454e-02  2.4242e+00  8.9387e-03  2.7253e-03  0:49:31  875

 Artificial walls on 38 faces (23.1% area) of pressure-inlet 42 to prevent fluid from flowing out of the boundary.
   126  2.5807e+00  4.1110e-01  6.2412e-02  6.4158e-02  2.4162e+00  1.0514e-02  3.3081e-03  0:48:31  874

 Artificial walls on 43 faces (24.5% area) of pressure-inlet 42 to prevent fluid from flowing out of the boundary.
   127  2.5703e+00  4.1422e-01  6.2096e-02  6.3814e-02  2.4067e+00  1.2252e-02  3.9924e-03  0:47:44  873

 Artificial walls on 49 faces (25.8% area) of pressure-inlet 42 to prevent fluid from flowing out of the boundary.
   128  2.5580e+00  4.1802e-01  6.1764e-02  6.3430e-02  2.3954e+00  1.4113e-02  4.7848e-03  0:47:06  872

 Artificial walls on 62 faces (28.0% area) of pressure-inlet 42 to prevent fluid from flowing out of the boundary.
   129  2.5433e+00  4.2262e-01  6.1469e-02  6.3060e-02  2.3821e+00  1.6066e-02  5.6918e-03  0:46:36  871

 Artificial walls on 77 faces (30.8% area) of pressure-inlet 42 to prevent fluid from flowing out of the boundary.
   130  2.5261e+00  4.2817e-01  6.1305e-02  6.2790e-02  2.3666e+00  1.8041e-02  6.7114e-03  0:46:04  870

 Artificial walls on 103 faces (35.4% area) of pressure-inlet 42 to prevent fluid from flowing out of the boundary.
   131  2.5063e+00  4.3484e-01  6.1358e-02  6.2700e-02  2.3490e+00  1.9942e-02  7.8212e-03  0:45:46  869

 Artificial walls on 139 faces (41.6% area) of pressure-inlet 42 to prevent fluid from flowing out of the boundary.
   132  2.4841e+00  4.4286e-01  6.1683e-02  6.2848e-02  2.3295e+00  2.1717e-02  8.9885e-03  0:45:45  868

 Artificial walls on 179 faces (48.3% area) of pressure-inlet 42 to prevent fluid from flowing out of the boundary.

  iter  continuity  x-velocity  y-velocity  z-velocity      energy           k       omega     time/iter
   133  2.4598e+00  4.5246e-01  6.2310e-02  6.3267e-02  2.3085e+00  2.3228e-02  1.0195e-02  0:46:09  867

 Artificial walls on 230 faces (56.6% area) of pressure-inlet 42 to prevent fluid from flowing out of the boundary.
   134  2.4332e+00  4.6379e-01  6.3271e-02  6.3989e-02  2.2860e+00  2.4468e-02  1.1377e-02  0:47:12  866

 Artificial walls on 293 faces (66.2% area) of pressure-inlet 42 to prevent fluid from flowing out of the boundary.

 time step reduced in 4 cells due to excessive temperature change
   135  2.4044e+00  4.7664e-01  6.4674e-02  6.5119e-02  2.2618e+00  2.4256e-02  1.1595e-02  0:47:53  865

 Artificial walls on 366 faces (76.1% area) of pressure-inlet 42 to prevent fluid from flowing out of the boundary.

 time step reduced in 9 cells due to excessive temperature change
   136  2.3799e+00  4.8878e-01  6.6254e-02  6.6442e-02  2.2413e+00  2.3585e-02  1.1354e-02  0:47:47  864

 Artificial walls on 435 faces (84.2% area) of pressure-inlet 42 to prevent fluid from flowing out of the boundary.

 time step reduced in 2 cells due to excessive temperature change
   137  2.3656e+00  4.9913e-01  6.7871e-02  6.7845e-02  2.2292e+00  2.3054e-02  1.1140e-02  0:47:30  863

 Artificial walls on 514 faces (92.1% area) of pressure-inlet 42 to prevent fluid from flowing out of the boundary.

 time step reduced in 21 cells due to excessive temperature change
   138  2.3607e+00  5.0763e-01  6.9602e-02  6.9405e-02  2.2245e+00  2.2609e-02  1.0959e-02  0:47:21  862

 Artificial walls on 570 faces (96.8% area) of pressure-inlet 42 to prevent fluid from flowing out of the boundary.

 time step reduced in 3 cells due to excessive temperature change
   139  2.3637e+00  5.1432e-01  7.1483e-02  7.1174e-02  2.2257e+00  2.2232e-02  1.0810e-02  0:47:02  861

 Artificial walls on 601 faces (99.0% area) of pressure-inlet 42 to prevent fluid from flowing out of the boundary.

 time step reduced in 20 cells due to excessive temperature change
   140  2.3744e+00  5.1931e-01  7.3465e-02  7.3098e-02  2.2325e+00  2.1787e-02  1.0693e-02  0:47:25  860

 Artificial walls on 618 faces (100.0% area) of pressure-inlet 42 to prevent fluid from flowing out of the boundary.

 time step reduced in 19 cells due to excessive temperature change
   141  2.3945e+00  5.2278e-01  7.5444e-02  7.5057e-02  2.2464e+00  2.1485e-02  1.0606e-02  0:47:49  859

 Artificial walls on 618 faces (100.0% area) of pressure-inlet 42 to prevent fluid from flowing out of the boundary.

 time step reduced in 1 cells due to excessive temperature change
   142  2.4225e+00  5.2493e-01  7.7304e-02  7.6939e-02  2.2661e+00  2.1139e-02  1.0546e-02  0:47:55  858

 Artificial walls on 618 faces (100.0% area) of pressure-inlet 42 to prevent fluid from flowing out of the boundary.
Temperature limited to 1.000000e+00 in 1 cells during the last 11 iterations

 time step reduced in 39 cells due to excessive temperature change
   143  2.4554e+00  5.2576e-01  7.8944e-02  7.8653e-02  2.2890e+00  2.0834e-02  1.0523e-02  0:47:34  857

 Artificial walls on 618 faces (100.0% area) of pressure-inlet 42 to prevent fluid from flowing out of the boundary.

 time step reduced in 10 cells due to excessive temperature change

  iter  continuity  x-velocity  y-velocity  z-velocity      energy           k       omega     time/iter
   144  2.4912e+00  5.2527e-01  8.0328e-02  8.0134e-02  2.3135e+00  2.0585e-02  1.0522e-02  0:47:19  856

 Artificial walls on 618 faces (100.0% area) of pressure-inlet 42 to prevent fluid from flowing out of the boundary.

 time step reduced in 4 cells due to excessive temperature change
   145  2.5316e+00  5.2354e-01  8.1454e-02  8.1376e-02  2.3411e+00  2.0367e-02  1.0525e-02  0:47:05  855

 Artificial walls on 618 faces (100.0% area) of pressure-inlet 42 to prevent fluid from flowing out of the boundary.

 time step reduced in 33 cells due to excessive temperature change
   146  2.5761e+00  5.2051e-01  8.2329e-02  8.2398e-02  2.3714e+00  2.0183e-02  1.0531e-02  0:46:48  854

 Artificial walls on 618 faces (100.0% area) of pressure-inlet 42 to prevent fluid from flowing out of the boundary.

 time step reduced in 5 cells due to excessive temperature change
   147  2.6228e+00  5.1574e-01  8.3016e-02  8.3225e-02  2.4032e+00  2.0001e-02  1.0526e-02  0:46:34  853

 Artificial walls on 618 faces (100.0% area) of pressure-inlet 42 to prevent fluid from flowing out of the boundary.

 time step reduced in 20 cells due to excessive temperature change
   148  2.6657e+00  5.0948e-01  8.3469e-02  8.3818e-02  2.4313e+00  1.9796e-02  1.0509e-02  0:46:05  852

 Artificial walls on 618 faces (100.0% area) of pressure-inlet 42 to prevent fluid from flowing out of the boundary.

 time step reduced in 24 cells due to excessive temperature change
   149  2.6992e+00  5.0186e-01  8.3729e-02  8.4249e-02  2.4508e+00  1.9580e-02  1.0488e-02  0:45:43  851

 Artificial walls on 618 faces (100.0% area) of pressure-inlet 42 to prevent fluid from flowing out of the boundary.

 time step reduced in 4 cells due to excessive temperature change
   150  2.7243e+00  4.9305e-01  8.3844e-02  8.4527e-02  2.4628e+00  1.9338e-02  1.0458e-02  0:45:12  850

 Artificial walls on 618 faces (100.0% area) of pressure-inlet 42 to prevent fluid from flowing out of the boundary.

 time step reduced in 46 cells due to excessive temperature change
   151  2.7385e+00  4.8289e-01  8.3785e-02  8.4564e-02  2.4650e+00  1.8970e-02  1.0415e-02  0:45:10  849

 Artificial walls on 618 faces (100.0% area) of pressure-inlet 42 to prevent fluid from flowing out of the boundary.

 time step reduced in 8 cells due to excessive temperature change
   152  2.7382e+00  4.7096e-01  8.3567e-02  8.4526e-02  2.4539e+00  1.8630e-02  1.0363e-02  0:44:53  848

 Artificial walls on 618 faces (100.0% area) of pressure-inlet 42 to prevent fluid from flowing out of the boundary.

 time step reduced in 38 cells due to excessive temperature change
   153  2.7243e+00  4.5758e-01  8.3350e-02  8.4677e-02  2.4307e+00  1.8327e-02  1.0302e-02  0:44:29  847

 Artificial walls on 618 faces (100.0% area) of pressure-inlet 42 to prevent fluid from flowing out of the boundary.
Absolute pressure limited to 1.000000e+00 in 3 cells during the last 11 iterations

 time step reduced in 12 cells due to excessive temperature change
   154  2.6969e+00  4.4309e-01  8.3280e-02  8.4957e-02  2.3963e+00  1.8109e-02  1.0257e-02  0:45:25  846

 Artificial walls on 618 faces (100.0% area) of pressure-inlet 42 to prevent fluid from flowing out of the boundary.

 time step reduced in 12 cells due to excessive temperature change

  iter  continuity  x-velocity  y-velocity  z-velocity      energy           k       omega     time/iter
   155  2.6595e+00  4.2806e-01  8.3634e-02  8.5598e-02  2.3542e+00  1.7892e-02  1.0225e-02  0:47:47  845

 Artificial walls on 618 faces (100.0% area) of pressure-inlet 42 to prevent fluid from flowing out of the boundary.

 time step reduced in 32 cells due to excessive temperature change
   156  2.6206e+00  4.1170e-01  8.4831e-02  8.6925e-02  2.3112e+00  1.7738e-02  1.0220e-02  0:48:44  844

 Artificial walls on 618 faces (100.0% area) of pressure-inlet 42 to prevent fluid from flowing out of the boundary.
   157  2.6065e+00  3.9371e-01  8.7154e-02  8.9480e-02  2.2913e+00  1.7606e-02  1.0225e-02  0:48:01  843

 Artificial walls on 618 faces (100.0% area) of pressure-inlet 42 to prevent fluid from flowing out of the boundary.

 time step reduced in 48 cells due to excessive temperature change
   158  2.6584e+00  3.7707e-01  9.1075e-02  9.3969e-02  2.3330e+00  1.7442e-02  1.0246e-02  0:47:27  842

 Artificial walls on 618 faces (100.0% area) of pressure-inlet 42 to prevent fluid from flowing out of the boundary.
   159  2.8373e+00  3.6766e-01  9.6710e-02  1.0021e-01  2.4928e+00  1.7305e-02  1.0275e-02  0:47:28  841

 Artificial walls on 618 faces (100.0% area) of pressure-inlet 42 to prevent fluid from flowing out of the boundary.

 time step reduced in 75 cells due to excessive temperature change
   160  3.2337e+00  3.7563e-01  1.0352e-01  1.0764e-01  2.8523e+00  1.7138e-02  1.0308e-02  0:47:35  840

 Artificial walls on 618 faces (100.0% area) of pressure-inlet 42 to prevent fluid from flowing out of the boundary.

 time step reduced in 1 cells due to excessive temperature change
   161  3.8827e+00  4.1084e-01  1.1081e-01  1.1541e-01  3.4407e+00  1.6985e-02  1.0339e-02  0:47:57  839

 Artificial walls on 618 faces (100.0% area) of pressure-inlet 42 to prevent fluid from flowing out of the boundary.

 time step reduced in 85 cells due to excessive temperature change
   162  4.7328e+00  4.7568e-01  1.1830e-01  1.2310e-01  4.2103e+00  1.6848e-02  1.0355e-02  0:48:49  838

 Artificial walls on 618 faces (100.0% area) of pressure-inlet 42 to prevent fluid from flowing out of the boundary.

 time step reduced in 2 cells due to excessive temperature change
   163  5.7035e+00  5.6490e-01  1.2584e-01  1.3053e-01  5.0890e+00  1.6722e-02  1.0351e-02  0:49:03  837

 Artificial walls on 618 faces (100.0% area) of pressure-inlet 42 to prevent fluid from flowing out of the boundary.

 time step reduced in 85 cells due to excessive temperature change
   164  6.7080e+00  6.6842e-01  1.3317e-01  1.3734e-01  5.9995e+00  1.6608e-02  1.0336e-02  0:50:37  836

 Artificial walls on 618 faces (100.0% area) of pressure-inlet 42 to prevent fluid from flowing out of the boundary.

 time step reduced in 3 cells due to excessive temperature change
   165  7.6667e+00  7.7590e-01  1.4083e-01  1.4395e-01  6.8713e+00  1.6473e-02  1.0321e-02  0:50:30  835

 Artificial walls on 618 faces (100.0% area) of pressure-inlet 42 to prevent fluid from flowing out of the boundary.

 time step reduced in 77 cells due to excessive temperature change

  iter  continuity  x-velocity  y-velocity  z-velocity      energy           k       omega     time/iter
   166  8.4895e+00  8.7795e-01  1.4964e-01  1.5142e-01  7.6253e+00  1.6366e-02  1.0309e-02  0:51:10  834

 Artificial walls on 618 faces (100.0% area) of pressure-inlet 42 to prevent fluid from flowing out of the boundary.

 time step reduced in 11 cells due to excessive temperature change
   167  9.0896e+00  9.6609e-01  1.5914e-01  1.5972e-01  8.1848e+00  1.6265e-02  1.0293e-02  0:51:39  833

 Artificial walls on 618 faces (100.0% area) of pressure-inlet 42 to prevent fluid from flowing out of the boundary.

 time step reduced in 59 cells due to excessive temperature change
   168  9.5085e+00  1.0370e+00  1.7098e-01  1.7012e-01  8.5848e+00  1.6161e-02  1.0278e-02  0:51:02  832

 Artificial walls on 618 faces (100.0% area) of pressure-inlet 42 to prevent fluid from flowing out of the boundary.

 time step reduced in 21 cells due to excessive temperature change
   169  9.7575e+00  1.0932e+00  1.8461e-01  1.8221e-01  8.8331e+00  1.6093e-02  1.0252e-02  0:50:28  831

 Artificial walls on 618 faces (100.0% area) of pressure-inlet 42 to prevent fluid from flowing out of the boundary.

 time step reduced in 25 cells due to excessive temperature change
   170  9.8392e+00  1.1353e+00  1.9958e-01  1.9631e-01  8.9302e+00  1.6014e-02  1.0222e-02  0:50:32  830

 Artificial walls on 618 faces (100.0% area) of pressure-inlet 42 to prevent fluid from flowing out of the boundary.

 time step reduced in 30 cells due to excessive temperature change
   171  9.7396e+00  1.1656e+00  2.1671e-01  2.1266e-01  8.8630e+00  1.5964e-02  1.0185e-02  0:50:30  829

 Artificial walls on 618 faces (100.0% area) of pressure-inlet 42 to prevent fluid from flowing out of the boundary.
   172  9.4583e+00  1.1850e+00  2.3510e-01  2.3084e-01  8.6298e+00  1.5949e-02  1.0168e-02  0:49:40  828

 Artificial walls on 618 faces (100.0% area) of pressure-inlet 42 to prevent fluid from flowing out of the boundary.

 time step reduced in 53 cells due to excessive temperature change
   173  9.0711e+00  1.1925e+00  2.5268e-01  2.4907e-01  8.2942e+00  1.5956e-02  1.0154e-02  0:48:45  827

 Artificial walls on 618 faces (100.0% area) of pressure-inlet 42 to prevent fluid from flowing out of the boundary.
   174  8.6003e+00  1.1838e+00  2.6782e-01  2.6562e-01  7.8740e+00  1.6026e-02  1.0142e-02  0:47:57  826

 Artificial walls on 618 faces (100.0% area) of pressure-inlet 42 to prevent fluid from flowing out of the boundary.

 time step reduced in 11 cells due to excessive temperature change
   175  8.0252e+00  1.1546e+00  2.8042e-01  2.7897e-01  7.3506e+00  1.6108e-02  1.0127e-02  0:47:36  825

 Artificial walls on 618 faces (100.0% area) of pressure-inlet 42 to prevent fluid from flowing out of the boundary.

 time step reduced in 10 cells due to excessive temperature change
   176  7.3237e+00  1.1052e+00  2.8971e-01  2.8859e-01  6.7055e+00  1.6223e-02  1.0120e-02  0:47:23  824

 Artificial walls on 618 faces (100.0% area) of pressure-inlet 42 to prevent fluid from flowing out of the boundary.

  iter  continuity  x-velocity  y-velocity  z-velocity      energy           k       omega     time/iter
   177  6.5216e+00  1.0400e+00  2.9455e-01  2.9419e-01  5.9620e+00  1.6321e-02  1.0130e-02  0:46:26  823

 Artificial walls on 618 faces (100.0% area) of pressure-inlet 42 to prevent fluid from flowing out of the boundary.

 time step reduced in 1 cells due to excessive temperature change
   178  5.6660e+00  9.6023e-01  2.9455e-01  2.9516e-01  5.1621e+00  1.6459e-02  1.0138e-02  0:46:09  822

 Artificial walls on 618 faces (100.0% area) of pressure-inlet 42 to prevent fluid from flowing out of the boundary.
   179  4.7888e+00  8.6887e-01  2.8985e-01  2.9151e-01  4.3365e+00  1.6612e-02  1.0146e-02  0:45:52  821

 Artificial walls on 618 faces (100.0% area) of pressure-inlet 42 to prevent fluid from flowing out of the boundary.
   180  3.9209e+00  7.7145e-01  2.8058e-01  2.8340e-01  3.5168e+00  1.6771e-02  1.0156e-02  0:45:23  820

 Artificial walls on 618 faces (100.0% area) of pressure-inlet 42 to prevent fluid from flowing out of the boundary.

 time step reduced in 3 cells due to excessive temperature change
   181  3.1680e+00  6.7861e-01  2.6725e-01  2.7127e-01  2.8037e+00  1.6910e-02  1.0161e-02  0:45:18  819

 Artificial walls on 618 faces (100.0% area) of pressure-inlet 42 to prevent fluid from flowing out of the boundary.
   182  2.6787e+00  5.9876e-01  2.5090e-01  2.5599e-01  2.3449e+00  1.7070e-02  1.0169e-02  0:44:52  818

 Artificial walls on 618 faces (100.0% area) of pressure-inlet 42 to prevent fluid from flowing out of the boundary.

 time step reduced in 1 cells due to excessive temperature change
   183  2.5381e+00  5.3911e-01  2.3317e-01  2.3911e-01  2.2340e+00  1.7169e-02  1.0165e-02  0:44:29  817

 Artificial walls on 618 faces (100.0% area) of pressure-inlet 42 to prevent fluid from flowing out of the boundary.
   184  2.7087e+00  5.0655e-01  2.1532e-01  2.2174e-01  2.4316e+00  1.7263e-02  1.0156e-02  0:44:18  816

 Artificial walls on 618 faces (100.0% area) of pressure-inlet 42 to prevent fluid from flowing out of the boundary.
   185  3.0532e+00  5.0083e-01  1.9868e-01  2.0533e-01  2.7914e+00  1.7310e-02  1.0153e-02  0:44:49  815

 Artificial walls on 618 faces (100.0% area) of pressure-inlet 42 to prevent fluid from flowing out of the boundary.

 time step reduced in 2 cells due to excessive temperature change
   186  3.4583e+00  5.1666e-01  1.8347e-01  1.8980e-01  3.1987e+00  1.7334e-02  1.0160e-02  0:46:16  814

 Artificial walls on 618 faces (100.0% area) of pressure-inlet 42 to prevent fluid from flowing out of the boundary.
   187  3.8659e+00  5.4671e-01  1.7047e-01  1.7621e-01  3.5977e+00  1.7361e-02  1.0162e-02  0:47:48  813

 Artificial walls on 618 faces (100.0% area) of pressure-inlet 42 to prevent fluid from flowing out of the boundary.

 time step reduced in 2 cells due to excessive temperature change

  iter  continuity  x-velocity  y-velocity  z-velocity      energy           k       omega     time/iter
   188  4.2105e+00  5.8116e-01  1.6017e-01  1.6497e-01  3.9302e+00  1.7395e-02  1.0156e-02  0:48:21  812

 Artificial walls on 618 faces (100.0% area) of pressure-inlet 42 to prevent fluid from flowing out of the boundary.
   189  4.4665e+00  6.1262e-01  1.5263e-01  1.5630e-01  4.1757e+00  1.7440e-02  1.0141e-02  0:47:47  811

 Artificial walls on 618 faces (100.0% area) of pressure-inlet 42 to prevent fluid from flowing out of the boundary.
   190  4.6554e+00  6.3845e-01  1.4729e-01  1.4976e-01  4.3538e+00  1.7436e-02  1.0120e-02  0:48:16  810

 Artificial walls on 618 faces (100.0% area) of pressure-inlet 42 to prevent fluid from flowing out of the boundary.
   191  4.7745e+00  6.5659e-01  1.4307e-01  1.4435e-01  4.4621e+00  1.7458e-02  1.0103e-02  0:50:14  809

 Artificial walls on 618 faces (100.0% area) of pressure-inlet 42 to prevent fluid from flowing out of the boundary.
   192  4.8066e+00  6.6424e-01  1.3985e-01  1.3991e-01  4.4880e+00  1.7430e-02  1.0080e-02  0:50:33  808

 Artificial walls on 618 faces (100.0% area) of pressure-inlet 42 to prevent fluid from flowing out of the boundary.
   193  4.7810e+00  6.6204e-01  1.3713e-01  1.3634e-01  4.4580e+00  1.7387e-02  1.0056e-02  0:51:10  807

 Artificial walls on 618 faces (100.0% area) of pressure-inlet 42 to prevent fluid from flowing out of the boundary.
   194  4.6983e+00  6.4961e-01  1.3471e-01  1.3346e-01  4.3729e+00  1.7362e-02  1.0036e-02  0:51:15  806

 Artificial walls on 618 faces (100.0% area) of pressure-inlet 42 to prevent fluid from flowing out of the boundary.
   195  4.5642e+00  6.2928e-01  1.3256e-01  1.3094e-01  4.2391e+00  1.7328e-02  1.0028e-02  0:50:54  805

 Artificial walls on 618 faces (100.0% area) of pressure-inlet 42 to prevent fluid from flowing out of the boundary.
   196  4.4010e+00  6.0205e-01  1.3063e-01  1.2886e-01  4.0769e+00  1.7195e-02  1.0030e-02  0:50:12  804

 Artificial walls on 618 faces (100.0% area) of pressure-inlet 42 to prevent fluid from flowing out of the boundary.
   197  4.2151e+00  5.6785e-01  1.2896e-01  1.2746e-01  3.8923e+00  1.7027e-02  1.0038e-02  0:49:29  803

 Artificial walls on 618 faces (100.0% area) of pressure-inlet 42 to prevent fluid from flowing out of the boundary.
Absolute pressure limited to 1.000000e+00 in 1 cells during the last 11 iterations

 time step reduced in 1 cells due to excessive temperature change
   198  4.0119e+00  5.2800e-01  1.2740e-01  1.2657e-01  3.6910e+00  1.6818e-02  1.0057e-02  0:49:01  802

 Artificial walls on 618 faces (100.0% area) of pressure-inlet 42 to prevent fluid from flowing out of the boundary.

 time step reduced in 1 cells due to excessive temperature change

 absolute pressure limited to 1.000000e+00 in 1 cells on zone 2297 

  iter  continuity  x-velocity  y-velocity  z-velocity      energy           k       omega     time/iter
   199  3.8074e+00  4.8545e-01  1.2572e-01  1.2559e-01  3.4872e+00  1.6532e-02  1.0094e-02  0:48:05  801

 Artificial walls on 618 faces (100.0% area) of pressure-inlet 42 to prevent fluid from flowing out of the boundary.

 absolute pressure limited to 1.000000e+00 in 2 cells on zone 2297 
   200  3.6143e+00  4.4219e-01  1.2351e-01  1.2423e-01  3.2927e+00  1.6244e-02  1.0139e-02  0:46:59  800

 Artificial walls on 618 faces (100.0% area) of pressure-inlet 42 to prevent fluid from flowing out of the boundary.

 absolute pressure limited to 1.000000e+00 in 3 cells on zone 2297 
   201  3.4370e+00  3.9933e-01  1.2055e-01  1.2234e-01  3.1117e+00  1.5948e-02  1.0186e-02  0:46:34  799

 Artificial walls on 618 faces (100.0% area) of pressure-inlet 42 to prevent fluid from flowing out of the boundary.

 absolute pressure limited to 1.000000e+00 in 5 cells on zone 2297 
   202  3.2834e+00  3.5842e-01  1.1660e-01  1.1966e-01  2.9518e+00  1.5596e-02  1.0226e-02  0:46:19  798

 Artificial walls on 618 faces (100.0% area) of pressure-inlet 42 to prevent fluid from flowing out of the boundary.

 absolute pressure limited to 1.000000e+00 in 8 cells on zone 2297 
   203  3.1596e+00  3.2131e-01  1.1169e-01  1.1598e-01  2.8192e+00  1.5274e-02  1.0261e-02  0:46:06  797

 Artificial walls on 618 faces (100.0% area) of pressure-inlet 42 to prevent fluid from flowing out of the boundary.

 absolute pressure limited to 1.000000e+00 in 16 cells on zone 2297 
   204  3.0664e+00  2.8947e-01  1.0589e-01  1.1131e-01  2.7151e+00  1.4949e-02  1.0284e-02  0:45:02  796

 Artificial walls on 618 faces (100.0% area) of pressure-inlet 42 to prevent fluid from flowing out of the boundary.

 absolute pressure limited to 1.000000e+00 in 34 cells on zone 2297 
   205  3.0037e+00  2.6405e-01  9.9214e-02  1.0572e-01  2.6403e+00  1.4643e-02  1.0289e-02  0:44:40  795

 Artificial walls on 618 faces (100.0% area) of pressure-inlet 42 to prevent fluid from flowing out of the boundary.

 absolute pressure limited to 1.000000e+00 in 54 cells on zone 2297 
   206  2.9679e+00  2.4551e-01  9.1838e-02  9.9292e-02  2.5921e+00  1.4379e-02  1.0287e-02  0:44:27  794

 Artificial walls on 618 faces (100.0% area) of pressure-inlet 42 to prevent fluid from flowing out of the boundary.

 absolute pressure limited to 1.000000e+00 in 77 cells on zone 2297 
   207  2.9527e+00  2.3363e-01  8.4041e-02  9.2250e-02  2.5652e+00  1.4173e-02  1.0282e-02  0:44:18  793

 Artificial walls on 618 faces (100.0% area) of pressure-inlet 42 to prevent fluid from flowing out of the boundary.

 absolute pressure limited to 1.000000e+00 in 97 cells on zone 2297 
   208  2.9526e+00  2.2758e-01  7.6196e-02  8.4878e-02  2.5548e+00  1.4027e-02  1.0278e-02  0:44:16  792

 Artificial walls on 618 faces (100.0% area) of pressure-inlet 42 to prevent fluid from flowing out of the boundary.
Absolute pressure limited to 1.000000e+00 in 546 cells during the last 11 iterations

 absolute pressure limited to 1.000000e+00 in 116 cells on zone 2297 
   209  2.9593e+00  2.2591e-01  6.8648e-02  7.7466e-02  2.5534e+00  1.3925e-02  1.0270e-02  0:44:22  791

 Artificial walls on 618 faces (100.0% area) of pressure-inlet 42 to prevent fluid from flowing out of the boundary.

 absolute pressure limited to 1.000000e+00 in 137 cells on zone 2297 

  iter  continuity  x-velocity  y-velocity  z-velocity      energy           k       omega     time/iter
   210  2.9652e+00  2.2688e-01  6.1734e-02  7.0257e-02  2.5537e+00  1.3859e-02  1.0257e-02  0:45:09  790

 Artificial walls on 618 faces (100.0% area) of pressure-inlet 42 to prevent fluid from flowing out of the boundary.

 absolute pressure limited to 1.000000e+00 in 164 cells on zone 2297 
   211  2.9626e+00  2.2850e-01  5.5791e-02  6.3516e-02  2.5487e+00  1.3862e-02  1.0238e-02  0:45:57  789

 Artificial walls on 618 faces (100.0% area) of pressure-inlet 42 to prevent fluid from flowing out of the boundary.

 absolute pressure limited to 1.000000e+00 in 186 cells on zone 2297 
   212  2.9471e+00  2.2946e-01  5.1094e-02  5.7515e-02  2.5338e+00  1.3905e-02  1.0223e-02  0:46:27  788

 Artificial walls on 618 faces (100.0% area) of pressure-inlet 42 to prevent fluid from flowing out of the boundary.

 absolute pressure limited to 1.000000e+00 in 203 cells on zone 2297 
   213  2.9181e+00  2.2929e-01  4.8053e-02  5.2756e-02  2.5081e+00  1.4049e-02  1.0199e-02  0:47:44  787

 Artificial walls on 618 faces (100.0% area) of pressure-inlet 42 to prevent fluid from flowing out of the boundary.

 absolute pressure limited to 1.000000e+00 in 226 cells on zone 2297 
   214  2.8751e+00  2.2752e-01  4.6644e-02  4.9631e-02  2.4708e+00  1.4223e-02  1.0177e-02  0:47:24  786

 Artificial walls on 618 faces (100.0% area) of pressure-inlet 42 to prevent fluid from flowing out of the boundary.

 absolute pressure limited to 1.000000e+00 in 246 cells on zone 2297 
   215  2.8195e+00  2.2409e-01  4.6483e-02  4.8043e-02  2.4233e+00  1.4470e-02  1.0154e-02  0:46:54  785

 Artificial walls on 618 faces (100.0% area) of pressure-inlet 42 to prevent fluid from flowing out of the boundary.

 absolute pressure limited to 1.000000e+00 in 271 cells on zone 2297 
   216  2.7570e+00  2.1937e-01  4.7469e-02  4.8059e-02  2.3705e+00  1.4813e-02  1.0127e-02  0:46:27  784

 Artificial walls on 618 faces (100.0% area) of pressure-inlet 42 to prevent fluid from flowing out of the boundary.

 absolute pressure limited to 1.000000e+00 in 297 cells on zone 2297 
   217  2.6946e+00  2.1399e-01  4.9035e-02  4.9518e-02  2.3188e+00  1.5245e-02  1.0101e-02  0:46:17  783

 Artificial walls on 618 faces (100.0% area) of pressure-inlet 42 to prevent fluid from flowing out of the boundary.

 absolute pressure limited to 1.000000e+00 in 317 cells on zone 2297 
   218  2.6397e+00  2.0830e-01  5.0606e-02  5.1756e-02  2.2746e+00  1.5749e-02  1.0080e-02  0:45:41  782

 Artificial walls on 618 faces (100.0% area) of pressure-inlet 42 to prevent fluid from flowing out of the boundary.

 absolute pressure limited to 1.000000e+00 in 336 cells on zone 2297 
   219  2.5971e+00  2.0236e-01  5.1763e-02  5.4157e-02  2.2418e+00  1.6357e-02  1.0053e-02  0:45:11  781

 Artificial walls on 618 faces (100.0% area) of pressure-inlet 42 to prevent fluid from flowing out of the boundary.
Absolute pressure limited to 1.000000e+00 in 2985 cells during the last 11 iterations

 absolute pressure limited to 1.000000e+00 in 364 cells on zone 2297 
   220  2.5678e+00  1.9590e-01  5.2242e-02  5.6210e-02  2.2211e+00  1.7023e-02  1.0026e-02  0:45:03  780

 Artificial walls on 618 faces (100.0% area) of pressure-inlet 42 to prevent fluid from flowing out of the boundary.

 absolute pressure limited to 1.000000e+00 in 377 cells on zone 2297 

  iter  continuity  x-velocity  y-velocity  z-velocity      energy           k       omega     time/iter
   221  2.5481e+00  1.8867e-01  5.1943e-02  5.7578e-02  2.2089e+00  1.7839e-02  9.9999e-03  0:46:15  779

 Artificial walls on 618 faces (100.0% area) of pressure-inlet 42 to prevent fluid from flowing out of the boundary.

 absolute pressure limited to 1.000000e+00 in 398 cells on zone 2297 
   222  2.5338e+00  1.8070e-01  5.0921e-02  5.8126e-02  2.2011e+00  1.8734e-02  9.9710e-03  0:48:08  778

 Artificial walls on 618 faces (100.0% area) of pressure-inlet 42 to prevent fluid from flowing out of the boundary.

 absolute pressure limited to 1.000000e+00 in 413 cells on zone 2297 
   223  2.5237e+00  1.7259e-01  4.9229e-02  5.7823e-02  2.1966e+00  1.9725e-02  9.9381e-03  0:49:01  777

 Artificial walls on 618 faces (100.0% area) of pressure-inlet 42 to prevent fluid from flowing out of the boundary.

 absolute pressure limited to 1.000000e+00 in 439 cells on zone 2297 
   224  2.5172e+00  1.6524e-01  4.7007e-02  5.6695e-02  2.1944e+00  2.0811e-02  9.8954e-03  0:48:13  776

 Artificial walls on 618 faces (100.0% area) of pressure-inlet 42 to prevent fluid from flowing out of the boundary.

 absolute pressure limited to 1.000000e+00 in 465 cells on zone 2297 
   225  2.5172e+00  1.5927e-01  4.4536e-02  5.4858e-02  2.1970e+00  2.1987e-02  9.8476e-03  0:47:25  775

 Artificial walls on 618 faces (100.0% area) of pressure-inlet 42 to prevent fluid from flowing out of the boundary.

 absolute pressure limited to 1.000000e+00 in 486 cells on zone 2297 
   226  2.5224e+00  1.5506e-01  4.2055e-02  5.2453e-02  2.2034e+00  2.3259e-02  9.7948e-03  0:46:12  774

 Artificial walls on 618 faces (100.0% area) of pressure-inlet 42 to prevent fluid from flowing out of the boundary.

 absolute pressure limited to 1.000000e+00 in 618 cells on zone 2297 
   227  2.5317e+00  1.5270e-01  3.9764e-02  4.9662e-02  2.2125e+00  2.4612e-02  9.7373e-03  0:45:15  773

 Artificial walls on 618 faces (100.0% area) of pressure-inlet 42 to prevent fluid from flowing out of the boundary.

 absolute pressure limited to 1.000000e+00 in 793 cells on zone 2297 
   228  2.5434e+00  1.5189e-01  3.7840e-02  4.6725e-02  2.2231e+00  2.6040e-02  9.6797e-03  0:44:12  772

 Artificial walls on 618 faces (100.0% area) of pressure-inlet 42 to prevent fluid from flowing out of the boundary.

 absolute pressure limited to 1.000000e+00 in 886 cells on zone 2297 
   229  2.5585e+00  1.5237e-01  3.6393e-02  4.3845e-02  2.2363e+00  2.7567e-02  9.6180e-03  0:43:20  771

 Artificial walls on 618 faces (100.0% area) of pressure-inlet 42 to prevent fluid from flowing out of the boundary.

 absolute pressure limited to 1.000000e+00 in 1062 cells on zone 2297 
   230  2.5804e+00  1.5388e-01  3.5435e-02  4.1176e-02  2.2549e+00  2.9133e-02  9.5587e-03  0:42:58  770

 Artificial walls on 618 faces (100.0% area) of pressure-inlet 42 to prevent fluid from flowing out of the boundary.
Absolute pressure limited to 1.000000e+00 in 8731 cells during the last 11 iterations

 absolute pressure limited to 1.000000e+00 in 1302 cells on zone 2297 
   231  2.6148e+00  1.5618e-01  3.4888e-02  3.8854e-02  2.2839e+00  3.0692e-02  9.5011e-03  0:42:41  769

 Artificial walls on 618 faces (100.0% area) of pressure-inlet 42 to prevent fluid from flowing out of the boundary.

 absolute pressure limited to 1.000000e+00 in 1892 cells on zone 2297 

  iter  continuity  x-velocity  y-velocity  z-velocity      energy           k       omega     time/iter
   232  2.6653e+00  1.5897e-01  3.4618e-02  3.6959e-02  2.3264e+00  3.2253e-02  9.4436e-03  0:42:42  768

 Artificial walls on 618 faces (100.0% area) of pressure-inlet 42 to prevent fluid from flowing out of the boundary.

 absolute pressure limited to 1.000000e+00 in 2662 cells on zone 2297 
   233  2.7348e+00  1.6189e-01  3.4508e-02  3.5426e-02  2.3850e+00  3.3809e-02  9.3727e-03  0:42:56  767

 Artificial walls on 618 faces (100.0% area) of pressure-inlet 42 to prevent fluid from flowing out of the boundary.

 absolute pressure limited to 1.000000e+00 in 3395 cells on zone 2297 
   234  2.8215e+00  1.6468e-01  3.4497e-02  3.4237e-02  2.4582e+00  3.5138e-02  9.2674e-03  0:42:44  766

 Artificial walls on 618 faces (100.0% area) of pressure-inlet 42 to prevent fluid from flowing out of the boundary.

 absolute pressure limited to 1.000000e+00 in 4211 cells on zone 2297 
   235  2.9225e+00  1.6707e-01  3.4535e-02  3.3355e-02  2.5436e+00  3.6335e-02  9.1265e-03  0:42:30  765

 Artificial walls on 618 faces (100.0% area) of pressure-inlet 42 to prevent fluid from flowing out of the boundary.

 absolute pressure limited to 1.000000e+00 in 5185 cells on zone 2297 
   236  3.0346e+00  1.6902e-01  3.4593e-02  3.2739e-02  2.6384e+00  3.7310e-02  8.9404e-03  0:42:20  764

 Artificial walls on 618 faces (100.0% area) of pressure-inlet 42 to prevent fluid from flowing out of the boundary.

 absolute pressure limited to 1.000000e+00 in 6318 cells on zone 2297 
   237  3.1557e+00  1.7058e-01  3.4683e-02  3.2366e-02  2.7408e+00  3.7995e-02  8.6892e-03  0:42:17  763

 Artificial walls on 618 faces (100.0% area) of pressure-inlet 42 to prevent fluid from flowing out of the boundary.

 absolute pressure limited to 1.000000e+00 in 7389 cells on zone 2297 
   238  3.2847e+00  1.7182e-01  3.4846e-02  3.2161e-02  2.8500e+00  3.8315e-02  8.3782e-03  0:42:15  762

 Artificial walls on 618 faces (100.0% area) of pressure-inlet 42 to prevent fluid from flowing out of the boundary.

 absolute pressure limited to 1.000000e+00 in 8437 cells on zone 2297 
   239  3.4209e+00  1.7295e-01  3.5054e-02  3.2063e-02  2.9652e+00  3.8226e-02  8.0685e-03  0:42:17  761

 Artificial walls on 618 faces (100.0% area) of pressure-inlet 42 to prevent fluid from flowing out of the boundary.

 absolute pressure limited to 1.000000e+00 in 9461 cells on zone 2297 
   240  3.5628e+00  1.7397e-01  3.5310e-02  3.2098e-02  3.0851e+00  3.7572e-02  7.8193e-03  0:42:25  760

 Artificial walls on 618 faces (100.0% area) of pressure-inlet 42 to prevent fluid from flowing out of the boundary.

 absolute pressure limited to 1.000000e+00 in 10377 cells on zone 2297 
   241  3.7083e+00  1.7507e-01  3.5626e-02  3.2220e-02  3.2078e+00  3.6303e-02  7.6469e-03  0:42:25  759

 Artificial walls on 618 faces (100.0% area) of pressure-inlet 42 to prevent fluid from flowing out of the boundary.
Absolute pressure limited to 1.000000e+00 in 81250 cells during the last 11 iterations

 absolute pressure limited to 1.000000e+00 in 11388 cells on zone 2297 
   242  3.8547e+00  1.7631e-01  3.6023e-02  3.2418e-02  3.3312e+00  3.4420e-02  7.5374e-03  0:43:03  758

 Artificial walls on 618 faces (100.0% area) of pressure-inlet 42 to prevent fluid from flowing out of the boundary.

 absolute pressure limited to 1.000000e+00 in 12515 cells on zone 2297 

  iter  continuity  x-velocity  y-velocity  z-velocity      energy           k       omega     time/iter
   243  4.0007e+00  1.7778e-01  3.6526e-02  3.2753e-02  3.4540e+00  3.2054e-02  7.4599e-03  0:43:47  757

 Artificial walls on 618 faces (100.0% area) of pressure-inlet 42 to prevent fluid from flowing out of the boundary.

 absolute pressure limited to 1.000000e+00 in 13693 cells on zone 2297 
   244  4.1459e+00  1.7950e-01  3.7108e-02  3.3252e-02  3.5760e+00  2.9247e-02  7.3938e-03  0:44:20  756

 Artificial walls on 618 faces (100.0% area) of pressure-inlet 42 to prevent fluid from flowing out of the boundary.

 absolute pressure limited to 1.000000e+00 in 14866 cells on zone 2297 
   245  4.2905e+00  1.8169e-01  3.7864e-02  3.3956e-02  3.6971e+00  2.6232e-02  7.3338e-03  0:43:55  755

 Artificial walls on 618 faces (100.0% area) of pressure-inlet 42 to prevent fluid from flowing out of the boundary.

 absolute pressure limited to 1.000000e+00 in 16050 cells on zone 2297 
   246  4.4340e+00  1.8447e-01  3.8810e-02  3.4800e-02  3.8173e+00  2.3129e-02  7.2794e-03  0:43:47  754

 Artificial walls on 618 faces (100.0% area) of pressure-inlet 42 to prevent fluid from flowing out of the boundary.

 absolute pressure limited to 1.000000e+00 in 17238 cells on zone 2297 
   247  4.5763e+00  1.8818e-01  4.0005e-02  3.6033e-02  3.9363e+00  2.0109e-02  7.2297e-03  0:43:51  753

 Artificial walls on 618 faces (100.0% area) of pressure-inlet 42 to prevent fluid from flowing out of the boundary.

 absolute pressure limited to 1.000000e+00 in 18555 cells on zone 2297 
   248  4.7165e+00  1.9323e-01  4.1478e-02  3.7577e-02  4.0533e+00  1.7383e-02  7.1860e-03  0:43:32  752

 Artificial walls on 618 faces (100.0% area) of pressure-inlet 42 to prevent fluid from flowing out of the boundary.

 absolute pressure limited to 1.000000e+00 in 20043 cells on zone 2297 
   249  4.8540e+00  1.9964e-01  4.3165e-02  3.9470e-02  4.1679e+00  1.5009e-02  7.1501e-03  0:43:06  751

 Artificial walls on 618 faces (100.0% area) of pressure-inlet 42 to prevent fluid from flowing out of the boundary.

 absolute pressure limited to 1.000000e+00 in 21821 cells on zone 2297 
   250  4.9887e+00  2.0804e-01  4.5056e-02  4.1782e-02  4.2799e+00  1.3034e-02  7.1178e-03  0:43:00  750

 Artificial walls on 618 faces (100.0% area) of pressure-inlet 42 to prevent fluid from flowing out of the boundary.

 absolute pressure limited to 1.000000e+00 in 23461 cells on zone 2297 
   251  5.1191e+00  2.1740e-01  4.7111e-02  4.4320e-02  4.3882e+00  1.1454e-02  7.0863e-03  0:42:33  749

 Artificial walls on 618 faces (100.0% area) of pressure-inlet 42 to prevent fluid from flowing out of the boundary.

 absolute pressure limited to 1.000000e+00 in 25144 cells on zone 2297 
   252  5.2444e+00  2.2712e-01  4.9398e-02  4.7145e-02  4.4920e+00  1.0238e-02  7.0505e-03  0:42:17  748

 Artificial walls on 618 faces (100.0% area) of pressure-inlet 42 to prevent fluid from flowing out of the boundary.
Absolute pressure limited to 1.000000e+00 in 224928 cells during the last 11 iterations

 absolute pressure limited to 1.000000e+00 in 26528 cells on zone 2297 
   253  5.3647e+00  2.3726e-01  5.1816e-02  5.0084e-02  4.5915e+00  9.3332e-03  7.0191e-03  0:41:33  747

 Artificial walls on 618 faces (100.0% area) of pressure-inlet 42 to prevent fluid from flowing out of the boundary.

 absolute pressure limited to 1.000000e+00 in 27648 cells on zone 2297 

  iter  continuity  x-velocity  y-velocity  z-velocity      energy           k       omega     time/iter
   254  5.4788e+00  2.4785e-01  5.4317e-02  5.3110e-02  4.6855e+00  8.6822e-03  6.9901e-03  0:41:05  746

 Artificial walls on 618 faces (100.0% area) of pressure-inlet 42 to prevent fluid from flowing out of the boundary.

 absolute pressure limited to 1.000000e+00 in 28812 cells on zone 2297 
   255  5.5856e+00  2.5879e-01  5.6827e-02  5.6144e-02  4.7731e+00  8.2227e-03  6.9610e-03  0:40:28  745

 Artificial walls on 618 faces (100.0% area) of pressure-inlet 42 to prevent fluid from flowing out of the boundary.

 absolute pressure limited to 1.000000e+00 in 30116 cells on zone 2297 
   256  5.6840e+00  2.7017e-01  5.9378e-02  5.9160e-02  4.8535e+00  7.9010e-03  6.9259e-03  0:39:52  744

 Artificial walls on 618 faces (100.0% area) of pressure-inlet 42 to prevent fluid from flowing out of the boundary.

 absolute pressure limited to 1.000000e+00 in 31361 cells on zone 2297 
   257  5.7731e+00  2.8211e-01  6.1896e-02  6.2134e-02  4.9257e+00  7.6770e-03  6.8803e-03  0:39:58  743

 Artificial walls on 618 faces (100.0% area) of pressure-inlet 42 to prevent fluid from flowing out of the boundary.

 absolute pressure limited to 1.000000e+00 in 32653 cells on zone 2297 
   258  5.8505e+00  2.9461e-01  6.4400e-02  6.4994e-02  4.9877e+00  7.5205e-03  6.8360e-03  0:41:58  742

 Artificial walls on 618 faces (100.0% area) of pressure-inlet 42 to prevent fluid from flowing out of the boundary.

 absolute pressure limited to 1.000000e+00 in 33839 cells on zone 2297 
   259  5.9150e+00  3.0773e-01  6.6910e-02  6.7773e-02  5.0385e+00  7.4112e-03  6.7846e-03  0:42:08  741

 Artificial walls on 618 faces (100.0% area) of pressure-inlet 42 to prevent fluid from flowing out of the boundary.

 absolute pressure limited to 1.000000e+00 in 35152 cells on zone 2297 
   260  5.9661e+00  3.2173e-01  6.9534e-02  7.0603e-02  5.0776e+00  7.3337e-03  6.7233e-03  0:43:01  740

 Artificial walls on 618 faces (100.0% area) of pressure-inlet 42 to prevent fluid from flowing out of the boundary.

 absolute pressure limited to 1.000000e+00 in 36443 cells on zone 2297 
   261  6.0028e+00  3.3683e-01  7.2342e-02  7.3569e-02  5.1043e+00  7.2740e-03  6.6619e-03  0:43:08  739

 Artificial walls on 618 faces (100.0% area) of pressure-inlet 42 to prevent fluid from flowing out of the boundary.

 absolute pressure limited to 1.000000e+00 in 37757 cells on zone 2297 
   262  6.0247e+00  3.5312e-01  7.5391e-02  7.6713e-02  5.1182e+00  7.2253e-03  6.6041e-03  0:42:37  738

 Artificial walls on 618 faces (100.0% area) of pressure-inlet 42 to prevent fluid from flowing out of the boundary.

 absolute pressure limited to 1.000000e+00 in 39067 cells on zone 2297 
   263  6.0313e+00  3.7080e-01  7.8369e-02  8.0058e-02  5.1189e+00  7.1863e-03  6.5515e-03  0:41:52  737

 Artificial walls on 618 faces (100.0% area) of pressure-inlet 42 to prevent fluid from flowing out of the boundary.
Absolute pressure limited to 1.000000e+00 in 386776 cells during the last 11 iterations

 absolute pressure limited to 1.000000e+00 in 40223 cells on zone 2297 
   264  6.0217e+00  3.9008e-01  8.1223e-02  8.3137e-02  5.1058e+00  7.1502e-03  6.5081e-03  0:41:39  736

 Artificial walls on 618 faces (100.0% area) of pressure-inlet 42 to prevent fluid from flowing out of the boundary.

 absolute pressure limited to 1.000000e+00 in 41353 cells on zone 2297 

  iter  continuity  x-velocity  y-velocity  z-velocity      energy           k       omega     time/iter
[...]
(cx-gui-do cx-activate-item "Surface Report Definition*Table1*Table2*Table6*List1(Surfaces)")
(cx-gui-do cx-activate-item "Surface Report Definition*PanelButtons*PushButton4(Compute)")

                  Mass Flow Rate              [kg/s]
-------------------------------- -------------------
                           inlet                   0
(cx-gui-do cx-activate-item "Surface Report Definition*PanelButtons*PushButton4(Compute)")

                  Mass Flow Rate              [kg/s]
-------------------------------- -------------------
                           inlet                   0
(cx-gui-do cx-set-list-selections "Surface Report Definition*Table1*Table2*Table6*List1(Surfaces)" '( 0 7))
(cx-gui-do cx-activate-item "Surface Report Definition*Table1*Table2*Table6*List1(Surfaces)")
(cx-gui-do cx-set-list-selections "Surface Report Definition*Table1*Table2*Table6*List1(Surfaces)" '( 7))
(cx-gui-do cx-activate-item "Surface Report Definition*Table1*Table2*Table6*List1(Surfaces)")
(cx-gui-do cx-activate-item "Surface Report Definition*PanelButtons*PushButton4(Compute)")

                  Mass Flow Rate              [kg/s]
-------------------------------- -------------------
                      outlet:999       4.4202387e-05
(cx-gui-do cx-set-list-selections "Surface Report Definition*Table1*Table2*Table6*List1(Surfaces)" '())
(cx-gui-do cx-activate-item "Surface Report Definition*Table1*Table2*Table6*List1(Surfaces)")
(cx-gui-do cx-set-list-selections "Surface Report Definition*Table1*Table2*Table6*List1(Surfaces)" '( 8))
(cx-gui-do cx-activate-item "Surface Report Definition*Table1*Table2*Table6*List1(Surfaces)")
(cx-gui-do cx-activate-item "Surface Report Definition*PanelButtons*PushButton4(Compute)")

                  Mass Flow Rate              [kg/s]
-------------------------------- -------------------
               vacuum-boundaries      -0.00047240822
(cx-gui-do cx-set-list-selections "Surface Report Definition*Table1*Table2*Table6*List1(Surfaces)" '())
(cx-gui-do cx-activate-item "Surface Report Definition*Table1*Table2*Table6*List1(Surfaces)")
(cx-gui-do cx-set-list-selections "Surface Report Definition*Table1*Table2*Table6*List1(Surfaces)" '( 1))
(cx-gui-do cx-activate-item "Surface Report Definition*Table1*Table2*Table6*List1(Surfaces)")
(cx-gui-do cx-activate-item "Surface Report Definition*PanelButtons*PushButton4(Compute)")

                  Mass Flow Rate              [kg/s]
-------------------------------- -------------------
              internal-wall:1969                   0
(cx-gui-do cx-set-list-selections "Surface Report Definition*Table1*Table2*Table6*List1(Surfaces)" '())
(cx-gui-do cx-activate-item "Surface Report Definition*Table1*Table2*Table6*List1(Surfaces)")
(cx-gui-do cx-set-list-selections "Surface Report Definition*Table1*Table2*Table6*List1(Surfaces)" '( 2))
(cx-gui-do cx-activate-item "Surface Report Definition*Table1*Table2*Table6*List1(Surfaces)")
(cx-gui-do cx-activate-item "Surface Report Definition*PanelButtons*PushButton4(Compute)")

                  Mass Flow Rate              [kg/s]
-------------------------------- -------------------
       internal-wall:1969-shadow                   0
(cx-gui-do cx-set-list-selections "Surface Report Definition*Table1*Table2*Table6*List1(Surfaces)" '())
(cx-gui-do cx-activate-item "Surface Report Definition*Table1*Table2*Table6*List1(Surfaces)")
(cx-gui-do cx-set-list-selections "Surface Report Definition*Table1*Table2*Table6*List1(Surfaces)" '( 3))
(cx-gui-do cx-activate-item "Surface Report Definition*Table1*Table2*Table6*List1(Surfaces)")
(cx-gui-do cx-activate-item "Surface Report Definition*PanelButtons*PushButton4(Compute)")

                  Mass Flow Rate              [kg/s]
-------------------------------- -------------------
            nozzle-volume-vacuum                   0
(cx-gui-do cx-set-list-selections "Surface Report Definition*Table1*Table2*Table6*List1(Surfaces)" '())
(cx-gui-do cx-activate-item "Surface Report Definition*Table1*Table2*Table6*List1(Surfaces)")
(cx-gui-do cx-set-list-selections "Surface Report Definition*Table1*Table2*Table6*List1(Surfaces)" '( 0))
(cx-gui-do cx-activate-item "Surface Report Definition*Table1*Table2*Table6*List1(Surfaces)")
(cx-gui-do cx-activate-item "Surface Report Definition*PanelButtons*PushButton4(Compute)")

                  Mass Flow Rate              [kg/s]
-------------------------------- -------------------
                           inlet                   0
(cx-gui-do cx-set-list-selections "Surface Report Definition*Table1*Table2*Table6*List1(Surfaces)" '( 0 7))
(cx-gui-do cx-activate-item "Surface Report Definition*Table1*Table2*Table6*List1(Surfaces)")
(cx-gui-do cx-set-list-selections "Surface Report Definition*Table1*Table2*Table6*List1(Surfaces)" '( 7))
(cx-gui-do cx-activate-item "Surface Report Definition*Table1*Table2*Table6*List1(Surfaces)")
(cx-gui-do cx-activate-item "Surface Report Definition*PanelButtons*PushButton4(Compute)")

                  Mass Flow Rate              [kg/s]
-------------------------------- -------------------
                      outlet:999       4.4202387e-05
(cx-gui-do cx-set-text-entry "Surface Report Definition*Table1*Table1*TextEntry1(Name)" "mass-flow-outlet")
(cx-gui-do cx-activate-item "Surface Report Definition*Table1*Table1*TextEntry1(Name)")
(cx-gui-do cx-activate-item "Surface Report Definition*PanelButtons*PushButton1(OK)")
(cx-gui-do cx-activate-item "Ribbon*Frame1*Frame5(Solution)*Table1*Table3(Reports)*PushButton2(Definitions)")
(cx-gui-do cx-activate-item "MenuBar*Flux ReportSubMenu*Mass Flow Rate...")
(cx-gui-do cx-set-list-selections "Flux Report Definition*Table2*Table2*List2(Boundaries)" '( 0))
(cx-gui-do cx-activate-item "Flux Report Definition*Table2*Table2*List2(Boundaries)")
(cx-gui-do cx-activate-item "Flux Report Definition*PanelButtons*PushButton5(Compute)")

                  Mass Flow Rate              [kg/s]
-------------------------------- -------------------
                           inlet                   0
(cx-gui-do cx-activate-item "Flux Report Definition*PanelButtons*PushButton2(Cancel)")
(cx-gui-do cx-activate-item "Ribbon*Frame1*Frame5(Solution)*Table1*Table3(Reports)*PushButton2(Definitions)")
(cx-gui-do cx-activate-item "Ribbon*Frame1*Frame5(Solution)*Table1*Table3(Reports)*PushButton2(Definitions)")
(cx-gui-do cx-activate-item "MenuBar*Surface ReportSubMenu*Area...")
(cx-gui-do cx-set-list-selections "Surface Report Definition*Table1*Table2*Table6*List1(Surfaces)" '( 0))
(cx-gui-do cx-activate-item "Surface Report Definition*Table1*Table2*Table6*List1(Surfaces)")
(cx-gui-do cx-activate-item "Surface Report Definition*PanelButtons*PushButton4(Compute)")

                            Area               [m^2]
-------------------------------- -------------------
                           inlet       1.2107184e-05
(cx-gui-do cx-set-list-selections "Surface Report Definition*Table1*Table2*Table6*List1(Surfaces)" '( 0 7))
(cx-gui-do cx-activate-item "Surface Report Definition*Table1*Table2*Table6*List1(Surfaces)")
(cx-gui-do cx-activate-item "Surface Report Definition*PanelButtons*PushButton4(Compute)")

                            Area               [m^2]
-------------------------------- -------------------
                    report-def-0       8.9503596e-05
(cx-gui-do cx-set-list-selections "Surface Report Definition*Table1*Table2*Table6*List1(Surfaces)" '( 7))
(cx-gui-do cx-activate-item "Surface Report Definition*Table1*Table2*Table6*List1(Surfaces)")
(cx-gui-do cx-activate-item "Surface Report Definition*PanelButtons*PushButton4(Compute)")

                            Area               [m^2]
-------------------------------- -------------------
                      outlet:999       7.7396412e-05
(cx-gui-do cx-set-text-entry "Surface Report Definition*Table1*Table1*TextEntry1(Name)" "outlet-area")
(cx-gui-do cx-activate-item "Surface Report Definition*Table1*Table1*TextEntry1(Name)")
(cx-gui-do cx-activate-item "Surface Report Definition*PanelButtons*PushButton1(OK)")
(cx-gui-do cx-activate-item "Ribbon*Frame1*Frame5(Solution)*Table1*Table3(Reports)*PushButton2(Definitions)")
(cx-gui-do cx-activate-item "MenuBar*Force ReportSubMenu*Force...")
(cx-gui-do cx-set-list-selections "Force Report Definition*Table1*Table2*List2(Zones)" '( 4))
(cx-gui-do cx-activate-item "Force Report Definition*Table1*Table2*List2(Zones)")
(cx-gui-do cx-activate-item "Force Report Definition*PanelButtons*PushButton6(Compute)")

                           Force                 [N]
-------------------------------- -------------------
                     nozzle-wall                   0
(cx-gui-do cx-set-list-selections "Force Report Definition*Table1*Table2*List2(Zones)" '())
(cx-gui-do cx-activate-item "Force Report Definition*Table1*Table2*List2(Zones)")
(cx-gui-do cx-set-list-selections "Force Report Definition*Table1*Table2*List2(Zones)" '( 1))
(cx-gui-do cx-activate-item "Force Report Definition*Table1*Table2*List2(Zones)")
(cx-gui-do cx-activate-item "Force Report Definition*PanelButtons*PushButton6(Compute)")

                           Force                 [N]
-------------------------------- -------------------
       internal-wall:1969-shadow                   0
(cx-gui-do cx-set-list-selections "Force Report Definition*Table1*Table2*List2(Zones)" '( 0 1))
(cx-gui-do cx-activate-item "Force Report Definition*Table1*Table2*List2(Zones)")
(cx-gui-do cx-set-list-selections "Force Report Definition*Table1*Table2*List2(Zones)" '( 0))
(cx-gui-do cx-activate-item "Force Report Definition*Table1*Table2*List2(Zones)")
(cx-gui-do cx-activate-item "Force Report Definition*PanelButtons*PushButton6(Compute)")

                           Force                 [N]
-------------------------------- -------------------
              internal-wall:1969           6.1558663
(cx-gui-do cx-set-real-entry-list "Force Report Definition*Table1*Table1*Table2*Table2(Force Vector)*RealEntry1(X)" '( -1))
(cx-gui-do cx-activate-item "Force Report Definition*PanelButtons*PushButton6(Compute)")

                           Force                 [N]
-------------------------------- -------------------
              internal-wall:1969          -6.1558663
(cx-gui-do cx-set-toggle-button2 "Force Report Definition*Table1*Table1*Table1(Options)*CheckButton6(Per Zone)" #t)
(cx-gui-do cx-activate-item "Force Report Definition*Table1*Table1*Table1(Options)*CheckButton6(Per Zone)")
(cx-gui-do cx-set-toggle-button2 "Force Report Definition*Table1*Table1*Table1(Options)*CheckButton6(Per Zone)" #f)
(cx-gui-do cx-activate-item "Force Report Definition*Table1*Table1*Table1(Options)*CheckButton6(Per Zone)")
(cx-gui-do cx-activate-item "Force Report Definition*PanelButtons*PushButton2(Cancel)")
(cx-gui-do cx-activate-item "Ribbon*Frame1*Frame5(Solution)*Table1*Table3(Reports)*PushButton2(Definitions)")
(cx-gui-do cx-activate-item "MenuBar*Surface ReportSubMenu*Area-Weighted Average...")
(cx-gui-do cx-set-list-selections "Surface Report Definition*Table1*Table2*DropDownList3(Field Variable)" '( 0))
(cx-gui-do cx-activate-item "Surface Report Definition*Table1*Table2*DropDownList3(Field Variable)")
(cx-gui-do cx-set-list-selections "Surface Report Definition*Table1*Table2*Table6*List1(Surfaces)" '( 7))
(cx-gui-do cx-activate-item "Surface Report Definition*Table1*Table2*Table6*List1(Surfaces)")
(cx-gui-do cx-activate-item "Surface Report Definition*PanelButtons*PushButton4(Compute)")

           Area-Weighted Average                [Pa]
-------------------------------- -------------------
                      outlet:999           28.849999
(cx-gui-do cx-set-text-entry "Surface Report Definition*Table1*Table1*TextEntry1(Name)" "outlet-pressure")
(cx-gui-do cx-activate-item "Surface Report Definition*Table1*Table1*TextEntry1(Name)")
(cx-gui-do cx-activate-item "Surface Report Definition*PanelButtons*PushButton1(OK)")
(cx-gui-do cx-activate-item "Ribbon*Frame1*Frame5(Solution)*Table1*Table3(Reports)*PushButton2(Definitions)")
(cx-gui-do cx-activate-item "MenuBar*Surface ReportSubMenu*Area-Weighted Average...")
(cx-gui-do cx-set-list-selections "Surface Report Definition*Table1*Table2*DropDownList3(Field Variable)" '( 3))
(cx-gui-do cx-activate-item "Surface Report Definition*Table1*Table2*DropDownList3(Field Variable)")
(cx-gui-do cx-set-list-selections "Surface Report Definition*Table1*Table2*Table6*List1(Surfaces)" '( 7))
(cx-gui-do cx-activate-item "Surface Report Definition*Table1*Table2*Table6*List1(Surfaces)")
(cx-gui-do cx-activate-item "Surface Report Definition*PanelButtons*PushButton4(Compute)")

           Area-Weighted Average                 [K]
-------------------------------- -------------------
                      outlet:999           404.85193
(cx-gui-do cx-set-list-selections "Surface Report Definition*Table1*Table2*DropDownList1(Report Type)" '( 1))
(cx-gui-do cx-activate-item "Surface Report Definition*Table1*Table2*DropDownList1(Report Type)")
(cx-gui-do cx-activate-item "Surface Report Definition*PanelButtons*PushButton4(Compute)")

                        Integral          [(K)(m^2)]
-------------------------------- -------------------
                      outlet:999         0.031334087
(cx-gui-do cx-set-list-selections "Surface Report Definition*Table1*Table2*DropDownList1(Report Type)" '( 2))
(cx-gui-do cx-activate-item "Surface Report Definition*Table1*Table2*DropDownList1(Report Type)")
(cx-gui-do cx-activate-item "Surface Report Definition*PanelButtons*PushButton4(Compute)")

              Standard Deviation                 [K]
-------------------------------- -------------------
                      outlet:999           90.532102
(cx-gui-do cx-set-list-selections "Surface Report Definition*Table1*Table2*DropDownList1(Report Type)" '( 12))
(cx-gui-do cx-activate-item "Surface Report Definition*Table1*Table2*DropDownList1(Report Type)")
(cx-gui-do cx-activate-item "Surface Report Definition*PanelButtons*PushButton4(Compute)")

                   Facet Minimum                 [K]
-------------------------------- -------------------
                      outlet:999           255.42641
(cx-gui-do cx-set-list-selections "Surface Report Definition*Table1*Table2*DropDownList1(Report Type)" '( 6))
(cx-gui-do cx-activate-item "Surface Report Definition*Table1*Table2*DropDownList1(Report Type)")
(cx-gui-do cx-activate-item "Surface Report Definition*PanelButtons*PushButton4(Compute)")

           Area-Weighted Average                 [K]
-------------------------------- -------------------
                      outlet:999           404.85193
(cx-gui-do cx-set-text-entry "Surface Report Definition*Table1*Table1*TextEntry1(Name)" "outlet-temperature")
(cx-gui-do cx-activate-item "Surface Report Definition*Table1*Table1*TextEntry1(Name)")
(cx-gui-do cx-activate-item "Surface Report Definition*PanelButtons*PushButton1(OK)")
(cx-gui-do cx-activate-item "Ribbon*Frame1*Frame5(Solution)*Table1*Table3(Reports)*PushButton2(Definitions)")
(cx-gui-do cx-activate-item "MenuBar*Volume ReportSubMenu*Mass-Average...")
(cx-gui-do cx-set-list-selections "Volume Report Definition*Table1*Table2*List6(Cell Zones)" '( 1))
(cx-gui-do cx-activate-item "Volume Report Definition*Table1*Table2*List6(Cell Zones)")
(cx-gui-do cx-activate-item "Volume Report Definition*PanelButtons*PushButton4(Compute)")

                    Mass-Average                [Pa]
-------------------------------- -------------------
                    volume-fluid           510373.44
(cx-gui-do cx-set-list-selections "Volume Report Definition*Table1*Table2*List6(Cell Zones)" '())
(cx-gui-do cx-activate-item "Volume Report Definition*Table1*Table2*List6(Cell Zones)")
(cx-gui-do cx-set-list-selections "Volume Report Definition*Table1*Table2*List6(Cell Zones)" '( 1))
(cx-gui-do cx-activate-item "Volume Report Definition*Table1*Table2*List6(Cell Zones)")
(cx-gui-do cx-set-list-selections "Volume Report Definition*Table1*Table2*DropDownList2(Field Variable)" '( 3))
(cx-gui-do cx-activate-item "Volume Report Definition*Table1*Table2*DropDownList2(Field Variable)")
(cx-gui-do cx-activate-item "Volume Report Definition*PanelButtons*PushButton4(Compute)")

                    Mass-Average                 [K]
-------------------------------- -------------------
                    volume-fluid           560.51851
(cx-gui-do cx-activate-item "Volume Report Definition*PanelButtons*PushButton2(Cancel)")
(cx-gui-do cx-activate-item "Ribbon*Frame1*Frame5(Solution)*Table1*Table3(Reports)*PushButton2(Definitions)")
(cx-gui-do cx-activate-item "MenuBar*Surface ReportSubMenu*Area-Weighted Average...")
(cx-gui-do cx-set-list-selections "Surface Report Definition*Table1*Table2*DropDownList3(Field Variable)" '( 2))
(cx-gui-do cx-activate-item "Surface Report Definition*Table1*Table2*DropDownList3(Field Variable)")
(cx-gui-do cx-set-list-selections "Surface Report Definition*Table1*Table2*Table6*List1(Surfaces)" '( 7))
(cx-gui-do cx-activate-item "Surface Report Definition*Table1*Table2*Table6*List1(Surfaces)")
(cx-gui-do cx-activate-item "Surface Report Definition*PanelButtons*PushButton4(Compute)")

           Area-Weighted Average               [m/s]
-------------------------------- -------------------
                      outlet:999           518.16562
(cx-gui-do cx-set-text-entry "Surface Report Definition*Table1*Table1*TextEntry1(Name)" "outlet-velocity")
(cx-gui-do cx-activate-item "Surface Report Definition*Table1*Table1*TextEntry1(Name)")
(cx-gui-do cx-activate-item "Surface Report Definition*PanelButtons*PushButton1(OK)")
(cx-gui-do cx-activate-item "Ribbon*Frame1*Frame5(Solution)*Table1*Table3(Reports)*PushButton2(Definitions)")
(cx-gui-do cx-activate-item "MenuBar*Surface ReportSubMenu*Area-Weighted Average...")
(cx-gui-do cx-set-list-selections "Surface Report Definition*Table1*Table2*DropDownList3(Field Variable)" '( 2))
(cx-gui-do cx-activate-item "Surface Report Definition*Table1*Table2*DropDownList3(Field Variable)")
(cx-gui-do cx-set-list-selections "Surface Report Definition*Table1*Table2*Table6*List1(Surfaces)" '( 7))
(cx-gui-do cx-activate-item "Surface Report Definition*Table1*Table2*Table6*List1(Surfaces)")
(cx-gui-do cx-set-list-selections "Surface Report Definition*Table1*Table2*DropDownList4" '( 7))
(cx-gui-do cx-activate-item "Surface Report Definition*Table1*Table2*DropDownList4")
(cx-gui-do cx-activate-item "Surface Report Definition*PanelButtons*PushButton4(Compute)")

           Area-Weighted Average                    
-------------------------------- -------------------
                      outlet:999            2.932505
(cx-gui-do cx-activate-item "Surface Report Definition*PanelButtons*PushButton1(OK)")
(cx-gui-do cx-activate-item "MenuBar*WriteSubMenu*Case & Data...")
(cx-gui-do cx-set-file-dialog-entries "Select File" '( "Nozzle_axial_KOmega_2000iterations.dat.h5") "CFF Case/Data Files (*.cas.h5 *.dat.h5 )")

Writing to SimonAsusLaptop:"C:/Users/Simon/Projects/MEng Electronics/Development of a Resistojet Thruster/2) Simulations/CFD/Nozzle_axial_KOmega_2000iterations.cas.h5" in NODE0 mode and compression level 1 ...
Grouping cells for Laplace smoothing ...
      487606 cells,     3 zones ...
     2290794 faces,    12 zones ...
     1431185 nodes,     1 zone  ...
  Done.

  Writing boundary layer flags ...
  Done.
Done.

Additional data file quantities are not supported when writing in the default CFF format (.dat.h5 files).


Writing to SimonAsusLaptop:"C:/Users/Simon/Projects/MEng Electronics/Development of a Resistojet Thruster/2) Simulations/CFD/Nozzle_axial_KOmega_2000iterations.dat.h5" in NODE0 mode and compression level 1 ...
  Writing results.
Done.
(cx-gui-do cx-activate-item "Information*OK")
/exit y

Posting ANSYS Product Improvement Program performance data 
Done.
Auto-Transcript Stop Time:  14:06:39, 15 Jul 2026 South Africa Standard Time 
Total Transcript Time: 3 Hour 3 Minute 41 Second.
