Auto-Transcript Start Time:  17:11:38, 13 Jul 2026 South Africa Standard Time 
Current Directory: "C:\Users\Simon\Projects\MEng Electronics\Development of a Resistojet Thruster\2) Simulations\CFD"

              Welcome to ANSYS Fluent 2026 R1

              Copyright 2026 Synopsys, Inc. and ANSYS, Inc. All rights reserved.
              Unauthorized use, distribution or duplication is prohibited.
              This product is subject to U.S. laws governing export and re-export.
              For full Legal Notice, see documentation.

Build Time: Feb  2 2026 16:32:00 EST  Build Id: 10262  
 
Connected License Server List:	<Non FlexNet Publisher License Server (FNPLS)>

     --------------------------------------------------------------
     This is a student version of ANSYS FLUENT. Usage of this product
     license is limited to the terms and conditions specified in your ANSYS
     license form, additional terms section.
     --------------------------------------------------------------
Host spawning Node 0 on machine "SimonAsusLaptop" (win64).
Host waiting for connection from Node 0 at 127.0.0.1:64997 

Node 0 connecting to the Host ... connection established.

------------------------------------------------------------------------------------------
ID    Hostname         Core  O.S.         PID    CPU Model Name                          
------------------------------------------------------------------------------------------
n3    SimonAsusLaptop  4/20  Windows-x64  54268  12th Gen Intel(R) Core(TM) i7-12700H    
n2    SimonAsusLaptop  3/20  Windows-x64  60016  12th Gen Intel(R) Core(TM) i7-12700H    
n1    SimonAsusLaptop  2/20  Windows-x64  65124  12th Gen Intel(R) Core(TM) i7-12700H    
n0*   SimonAsusLaptop  1/20  Windows-x64  65300  12th Gen Intel(R) Core(TM) i7-12700H    
host  SimonAsusLaptop        Windows-x64  55268  12th Gen Intel(R) Core(TM) i7-12700H    

MPI Option Selected: intel
Selected system interconnect: default
------------------------------------------------------------------------------------------

Cleanup script file is C:\\Users\\Simon\\Projects\\MEng Electronics\\Development of a Resistojet Thruster\\2) Simulations\\CFD\\cleanup-fluent-SimonAsusLaptop-55268.bat
Note: Rank = 0: Process affinity not being set (6).
Note: Rank = 1: Process affinity not being set (6).
Note: Rank = 2: Process affinity not being set (6).
Note: Rank = 3: Process affinity not being set (6).

Graphics driver currently in use: dx11


Posting ANSYS Product Improvement Program startup data
Done.

> (cx-gui-do cx-activate-item "MenuBar*ReadSubMenu*Mesh...")
(cx-gui-do cx-set-file-dialog-entries "Select File" '( "Nozzle_axial.msh.h5") "CFF Mesh Files (*.msh.h5 )")
Fast-loading "C:\PROGRA~1\ANSYSI~1\ANSYSS~1\v261\fluent\fluent26.1.0\\addons\afd\lib\hdfio.bin"
Done.

Reading from SimonAsusLaptop:"C:/Users/Simon/Projects/MEng Electronics/Development of a Resistojet Thruster/2) Simulations/CFD/Nozzle_axial.msh.h5" in NODE0 mode ...
  Reading mesh ...
      487606 cells,     3 cell zones ...
         123178 mixed cells,  zone id: 2287
          71222 mixed cells,  zone id: 2292
         293206 mixed cells,  zone id: 2297
     2283467 faces,    10 face zones ...
           5376 polygonal wall faces,  zone id: 1969
           1951 polygonal wall faces,  zone id: 1882
            190 polygonal internal faces,  zone id: 999
            190 polygonal wall faces,  zone id: 48
           1543 polygonal wall faces,  zone id: 47
          26672 polygonal pressure-outlet faces,  zone id: 46
            618 polygonal pressure-inlet faces,  zone id: 42
        1345918 mixed interior faces,  zone id: 2299
         365279 mixed interior faces,  zone id: 2294
         535730 mixed interior faces,  zone id: 2289
     1418602 nodes,    10 node zones ...

Building...
     mesh
	distributing mesh
		parts....,
		faces....,
		nodes....,
		cells....,
        bandwidth reduction using Reverse Cuthill-McKee: 113042/2519 = 44.8757
  Reading boundary layer flags ...
  Done.

     materials,
     interface,
     domains,
     zones,
	internal-wall:1969-shadow
	nozzle-volume-vacuum-shadow
	Skipping thread 18 of domain 1 (not referenced by grid).
	Skipping thread 19 of domain 1 (not referenced by grid).
	Skipping thread 20 of domain 1 (not referenced by grid).
	Skipping thread 33 of domain 1 (not referenced by grid).
	Skipping thread 34 of domain 1 (not referenced by grid).
	Skipping thread 35 of domain 1 (not referenced by grid).
	Skipping thread 36 of domain 1 (not referenced by grid).
	Skipping thread 37 of domain 1 (not referenced by grid).
	Skipping thread 38 of domain 1 (not referenced by grid).
	Skipping thread 39 of domain 1 (not referenced by grid).
	Skipping thread 40 of domain 1 (not referenced by grid).
	Skipping thread 41 of domain 1 (not referenced by grid).
	Skipping thread 59 of domain 1 (not referenced by grid).
	Skipping thread 61 of domain 1 (not referenced by grid).
	Skipping thread 62 of domain 1 (not referenced by grid).
	Skipping thread 64 of domain 1 (not referenced by grid).
	Skipping thread 74 of domain 1 (not referenced by grid).
	Skipping thread 75 of domain 1 (not referenced by grid).
	Skipping thread 77 of domain 1 (not referenced by grid).
	Skipping thread 78 of domain 1 (not referenced by grid).
	internal-wall:1969
	nozzle-volume-vacuum
	outlet:999
	nozzle-wall
	nozzle:1
	vacuum-boundaries
	inlet
	interior--volume-vacuum
	interior--nozzle
	interior--volume-fluid
	volume-fluid
	volume-vacuum
	nozzle
     parallel,
Done.
Mesh is now scaled to meters.
Re-partitioning the mesh as its not evenly distributed.
/parallel/partition/method metis ,
>> Dividing domain into 4 partitions using Metis.
   Time = 0.511 seconds.
   Done.

>> 4 Stored Partitions:
   ----------------------------------------------------------------------
   Collective Partition Statistics:        Minimum   Maximum   Total     
   ----------------------------------------------------------------------
   Cell count                              118013    124244    487606    
   Mean cell count deviation               -3.2%     1.9%      
   Partition boundary cell count           1799      4730      13005     
   Partition boundary cell count ratio     1.5%      3.8%      2.7%      

   Face count                              567557    583103    2290794   
   Mean face count deviation               -1.5%     1.2%      
   Partition boundary face count           4179      10033     14212     
   Partition boundary face count ratio     0.7%      1.7%      0.6%      

   Cell weights                            8e+05     1e+06     4e+06     
   Mean cell weight deviation              -20.3%    17.3%     

   Fluid cells                             80214     124244    416384    
   Mean fluid cell deviation               -22.9%    19.4%     

   Solid cells                             0         41301     71222     
   Mean solid cell deviation               -100.0%   132.0%    

   Partition neighbor count                1         2         
   ----------------------------------------------------------------------
   Partition Method                        Metis                                
   Stored Partition Count                  4                                    
Done.

   Smoothing partition boundaries.../parallel/partition/use-stored
Migrating partitions to compute-nodes.
>> 4 Active Partitions:
    P   Cells I-Cells Cell Ratio   Faces I-Faces Face Ratio Neighbors Load  Ext Cells   F-Cells   S-Cells
    0  124244    2254      0.018  575895    4877      0.008         1    1       2262    124244         0
    1  121515    1799      0.015  567557    4179      0.007         1    1       1815     80214     41301
    2  123834    4730      0.038  578451   10033      0.017         2    1       4661    123834         0
    3  118013    4222      0.036  583103    9335      0.016         2    1       4267     88092     29921

   ----------------------------------------------------------------------
   Collective Partition Statistics:        Minimum   Maximum   Total     
   ----------------------------------------------------------------------
   Cell count                              118013    124244    487606    
   Mean cell count deviation               -3.2%     1.9%      
   Partition boundary cell count           1799      4730      13005     
   Partition boundary cell count ratio     1.5%      3.8%      2.7%      

   Face count                              567557    583103    2290794   
   Mean face count deviation               -1.5%     1.2%      
   Partition boundary face count           4179      10033     14212     
   Partition boundary face count ratio     0.7%      1.7%      0.6%      

   Fluid cells                             80214     124244    416384    
   Mean fluid cell deviation               -22.9%    19.4%     

   Solid cells                             0         41301     71222     
   Mean solid cell deviation               -100.0%   132.0%    

   Partition neighbor count                1         2         
   ----------------------------------------------------------------------
   Partition Method                        Metis                                
   Stored Partition Count                  4                                    
Done.
(cx-gui-do cx-set-toggle-button2 "General*Table1*Table2(Solver)*ButtonBox1(Type)*Density-Based" #t)
(cx-gui-do cx-activate-item "General*Table1*Table2(Solver)*ButtonBox1(Type)*Density-Based")
(cx-gui-do cx-set-toggle-button2 "Ribbon*Frame1*Frame3(Physics)*Table1*Table3(Models)*CheckButton1(Energy)" #t)
(cx-gui-do cx-activate-item "Ribbon*Frame1*Frame3(Physics)*Table1*Table3(Models)*CheckButton1(Energy)")
(cx-gui-do cx-set-list-tree-selections "NavigationPane*Frame2*Table1*List_Tree2" (list "Setup|Models|Viscous (SST k-omega)"))
(cx-gui-do cx-set-list-tree-selections "NavigationPane*Frame2*Table1*List_Tree2" (list "Setup|Models|Viscous (SST k-omega)"))
(cx-gui-do cx-activate-item "NavigationPane*Frame2*Table1*List_Tree2")
(cx-gui-do cx-set-list-tree-selections "NavigationPane*Frame2*Table1*List_Tree2" (list "Setup|Models|Viscous (SST k-omega)"))
(cx-gui-do cx-set-toggle-button2 "Viscous Model*Table1*ToggleBox1(Model)*Inviscid" #t)
(cx-gui-do cx-activate-item "Viscous Model*Table1*ToggleBox1(Model)*Inviscid")
(cx-gui-do cx-activate-item "Viscous Model*PanelButtons*PushButton1(OK)")
(cx-gui-do cx-set-list-tree-selections "NavigationPane*Frame2*Table1*List_Tree2" (list "Setup|Models|Viscous (Inviscid)"))
(cx-gui-do cx-set-list-tree-selections "NavigationPane*Frame2*Table1*List_Tree2" (list "Setup|Materials|Solid"))
(cx-gui-do cx-set-list-tree-selections "NavigationPane*Frame2*Table1*List_Tree2" (list "Setup|Materials|Fluid"))
(cx-gui-do cx-set-list-tree-selections "NavigationPane*Frame2*Table1*List_Tree2" (list "Setup|Materials|Fluid"))
(cx-gui-do cx-activate-item "NavigationPane*Frame2*Table1*List_Tree2")
(cx-gui-do cx-set-list-tree-selections "NavigationPane*Frame2*Table1*List_Tree2" (list "Setup|Materials|Fluid"))
(cx-gui-do cx-set-list-tree-selections "NavigationPane*Frame2*Table1*List_Tree2" (list "Setup|Materials|Fluid|air"))
(cx-gui-do cx-set-list-tree-selections "NavigationPane*Frame2*Table1*List_Tree2" (list "Setup|Materials|Fluid|air"))
(cx-gui-do cx-activate-item "NavigationPane*Frame2*Table1*List_Tree2")
(cx-gui-do cx-set-text-entry "Create/Edit Materials*Table1*Frame1*Table1*TextEntry1(Name)" "r134a_approx")
(cx-gui-do cx-set-list-selections "Create/Edit Materials*Table2*Table1(Properties)*DropDownList4(Density)" '( 1))
(cx-gui-do cx-activate-item "Create/Edit Materials*Table2*Table1(Properties)*DropDownList4(Density)")
(cx-gui-do cx-set-real-entry-list "Create/Edit Materials*RealEntry12" '( 1305.84))
(cx-gui-do cx-set-real-entry-list "Create/Edit Materials*RealEntry18" '( 102.03))
(cx-gui-do cx-activate-item "Create/Edit Materials*PanelButtons*PushButton3(Change/Create)")
(cx-gui-do cx-activate-item "Question*OK")
(cx-gui-do cx-activate-item "Create/Edit Materials*PanelButtons*PushButton1(Close)")
(cx-gui-do cx-set-list-tree-selections "NavigationPane*Frame2*Table1*List_Tree2" (list ))
(cx-gui-do cx-set-list-tree-selections "NavigationPane*Frame2*Table1*List_Tree2" (list "Setup|Boundary Conditions|Internal"))
(cx-gui-do cx-set-list-tree-selections "NavigationPane*Frame2*Table1*List_Tree2" (list "Setup|Boundary Conditions|Inlet"))
(cx-gui-do cx-set-list-tree-selections "NavigationPane*Frame2*Table1*List_Tree2" (list "Setup|Boundary Conditions"))
(cx-gui-do cx-set-list-tree-selections "NavigationPane*Frame2*Table1*List_Tree2" (list "Setup|Boundary Conditions"))
(cx-gui-do cx-set-list-tree-selections "NavigationPane*Frame2*Table1*List_Tree2" (list "Setup|Boundary Conditions"))
(cx-gui-do cx-set-list-tree-selections "NavigationPane*Frame2*Table1*List_Tree2" (list "Setup|Boundary Conditions"))
(cx-gui-do cx-activate-item "NavigationPane*Frame2*Table1*List_Tree2")
(cx-gui-do cx-set-list-tree-selections "NavigationPane*Frame2*Table1*List_Tree2" (list "Setup|Boundary Conditions"))
(cx-gui-do cx-set-list-tree-selections "NavigationPane*Frame2*Table1*List_Tree2" (list "Setup|Boundary Conditions"))
(cx-gui-do cx-activate-item "Boundary Conditions*Table1*Table3*Table4*Table2*PushButton2(Operating Conditions)")
(cx-gui-do cx-set-expression-entry "Operating Conditions*Frame1*Table1(Pressure)*ExpressionEntry2(Operating Pressure)" '("0" . 0))
(cx-gui-do cx-activate-item "Operating Conditions*PanelButtons*PushButton1(OK)")
(cx-gui-do cx-set-list-tree-selections "NavigationPane*Frame2*Table1*List_Tree2" (list "Setup|Boundary Conditions|Inlet|inlet (pressure-inlet, id=42)"))
(cx-gui-do cx-set-list-tree-selections "NavigationPane*Frame2*Table1*List_Tree2" (list "Setup|Boundary Conditions|Inlet|inlet (pressure-inlet, id=42)"))
(cx-gui-do cx-activate-item "NavigationPane*Frame2*Table1*List_Tree2")
(cx-gui-do cx-set-list-tree-selections "NavigationPane*Frame2*Table1*List_Tree2" (list "Setup|Boundary Conditions|Inlet|inlet (pressure-inlet, id=42)"))
(cx-gui-do cx-activate-tab-index "Pressure Inlet*Frame2*Frame2" 0)
(cx-gui-do cx-activate-tab-index "Pressure Inlet*Frame2*Frame2" 1)
(cx-gui-do cx-activate-tab-index "Pressure Inlet*Frame2*Frame2" 0)
(cx-gui-do cx-activate-tab-index "Pressure Inlet*Frame2*Frame2" 2)
(cx-gui-do cx-activate-tab-index "Pressure Inlet*Frame2*Frame2" 0)
(cx-gui-do cx-activate-tab-index "Pressure Inlet*Frame2*Frame2" 3)
(cx-gui-do cx-activate-tab-index "Pressure Inlet*Frame2*Frame2" 0)
(cx-gui-do cx-activate-tab-index "Pressure Inlet*Frame2*Frame2" 4)
(cx-gui-do cx-activate-tab-index "Pressure Inlet*Frame2*Frame2" 0)
(cx-gui-do cx-activate-tab-index "Pressure Inlet*Frame2*Frame2" 5)
(cx-gui-do cx-activate-tab-index "Pressure Inlet*Frame2*Frame2" 0)
(cx-gui-do cx-activate-tab-index "Pressure Inlet*Frame2*Frame2" 6)
(cx-gui-do cx-activate-tab-index "Pressure Inlet*Frame2*Frame2" 0)
(cx-gui-do cx-activate-tab-index "Pressure Inlet*Frame2*Frame2" 7)
(cx-gui-do cx-activate-tab-index "Pressure Inlet*Frame2*Frame2" 0)
(cx-gui-do cx-activate-tab-index "Pressure Inlet*Frame2*Frame2" 8)
(cx-gui-do cx-activate-tab-index "Pressure Inlet*Frame2*Frame2" 0)
(cx-gui-do cx-enable-apply-button "Pressure Inlet")
(cx-gui-do cx-set-expression-entry "Pressure Inlet*Frame2*Frame2*Frame1(Momentum)*Table1*Table7*ExpressionEntry1(Gauge Total Pressure)" '("500000" . 0))
(cx-gui-do cx-set-expression-entry "Pressure Inlet*Frame2*Frame2*Frame1(Momentum)*Table1*Table8*ExpressionEntry1(Supersonic/Initial Gauge Pressure)" '("500000" . 0))
(cx-gui-do cx-activate-tab-index "Pressure Inlet*Frame2*Frame2" 1)
(cx-gui-do cx-set-expression-entry "Pressure Inlet*Frame2*Frame2*Frame2(Thermal)*Table1*Table1*ExpressionEntry1(Total Temperature)" '("600" . 0))
(cx-gui-do cx-activate-item "Pressure Inlet*PanelButtons*PushButton1(OK)")
(cx-gui-do cx-activate-tab-index "Pressure Inlet*Frame2*Frame2" 0)
(cx-gui-do cx-activate-item "Pressure Inlet*PanelButtons*PushButton1(OK)")
(cx-gui-do cx-activate-item "Pressure Inlet*PanelButtons*PushButton2(Cancel)")
(cx-gui-do cx-set-list-tree-selections "NavigationPane*Frame2*Table1*List_Tree2" (list "Setup|Boundary Conditions|Outlet|vacuum-boundaries (pressure-outlet, id=46)"))
(cx-gui-do cx-set-list-tree-selections "NavigationPane*Frame2*Table1*List_Tree2" (list "Setup|Boundary Conditions|Outlet|vacuum-boundaries (pressure-outlet, id=46)"))
(cx-gui-do cx-activate-item "NavigationPane*Frame2*Table1*List_Tree2")
(cx-gui-do cx-set-list-tree-selections "NavigationPane*Frame2*Table1*List_Tree2" (list "Setup|Boundary Conditions|Outlet|vacuum-boundaries (pressure-outlet, id=46)"))
(cx-gui-do cx-activate-tab-index "Pressure Outlet*Frame2*Frame2" 0)
(cx-gui-do cx-activate-tab-index "Pressure Outlet*Frame2*Frame2" 1)
(cx-gui-do cx-activate-tab-index "Pressure Outlet*Frame2*Frame2" 0)
(cx-gui-do cx-activate-tab-index "Pressure Outlet*Frame2*Frame2" 2)
(cx-gui-do cx-activate-tab-index "Pressure Outlet*Frame2*Frame2" 0)
(cx-gui-do cx-activate-tab-index "Pressure Outlet*Frame2*Frame2" 3)
(cx-gui-do cx-activate-tab-index "Pressure Outlet*Frame2*Frame2" 0)
(cx-gui-do cx-activate-tab-index "Pressure Outlet*Frame2*Frame2" 4)
(cx-gui-do cx-activate-tab-index "Pressure Outlet*Frame2*Frame2" 0)
(cx-gui-do cx-activate-tab-index "Pressure Outlet*Frame2*Frame2" 5)
(cx-gui-do cx-activate-tab-index "Pressure Outlet*Frame2*Frame2" 0)
(cx-gui-do cx-activate-tab-index "Pressure Outlet*Frame2*Frame2" 6)
(cx-gui-do cx-activate-tab-index "Pressure Outlet*Frame2*Frame2" 0)
(cx-gui-do cx-activate-tab-index "Pressure Outlet*Frame2*Frame2" 7)
(cx-gui-do cx-activate-tab-index "Pressure Outlet*Frame2*Frame2" 0)
(cx-gui-do cx-activate-tab-index "Pressure Outlet*Frame2*Frame2" 8)
(cx-gui-do cx-activate-tab-index "Pressure Outlet*Frame2*Frame2" 0)
(cx-gui-do cx-enable-apply-button "Pressure Outlet")
(cx-gui-do cx-set-expression-entry "Pressure Outlet*Frame2*Frame2*Frame1(Momentum)*Table1*Table7*ExpressionEntry1(Gauge Pressure)" '("70" . 0))
(cx-gui-do cx-activate-item "Pressure Outlet*PanelButtons*PushButton1(OK)")
(cx-gui-do cx-activate-item "Pressure Outlet*PanelButtons*PushButton2(Cancel)")
(cx-gui-do cx-activate-item "Ribbon*Frame1*Frame5(Solution)*Table1*Table3(Initialization)*PushButton6(Initialize)")

Initialize using the hybrid initialization method.

Checking case topology... 
-This case has both inlets & outlets 
-Pressure information is available at the boundaries

	iter		scalar-0		scalar-1

	1		1.000000e+00	1.000000e+00
	2		1.148894e-05	1.489414e-05
	3		1.833863e-06	2.405995e-06
	4		4.538995e-07	3.829723e-07
	5		1.171335e-07	1.092966e-07
	6		3.660518e-08	3.054613e-08
	7		1.176632e-08	9.417056e-09
	8		3.933537e-09	2.931137e-09
	9		1.359631e-09	9.554770e-10
	10		4.872897e-10	3.247122e-10

Hybrid initialization is done.
(cx-gui-do cx-activate-item "Ribbon*Frame1*Frame5(Solution)*Table1*PushButton1(Run Calculation)")
(cx-gui-do cx-set-integer-entry "Ribbon*Frame1*Frame5(Solution)*Table1*Table3(Run Calculation)*Table6*IntegerEntry16(No  of Iterations)" 500)
(cx-gui-do cx-activate-item "Ribbon*Frame1*Frame5(Solution)*Table1*Table3(Run Calculation)*Table6*IntegerEntry16(No  of Iterations)")
(cx-gui-do cx-activate-item "Ribbon*Frame1*Frame5(Solution)*Table1*Table3(Run Calculation)*PushButton9(Calculate)")


  iter  continuity  x-velocity  y-velocity  z-velocity      energy     time/iter


Error at Node 0: Divergence detected in AMG solverO
p
Error at Node 1: Divergence detected in AMG solvere
r
Error at Node 3: Divergence detected in AMG solvera
t
Error at Node 2: Divergence detected in AMG solveri
on stopped.
(cx-gui-do cx-set-list-tree-selections "NavigationPane*Frame2*Table1*List_Tree2" (list "Setup|Models|Species (Off)"))
(cx-gui-do cx-set-list-tree-selections "NavigationPane*Frame2*Table1*List_Tree2" (list "Setup|Models|Viscous (Inviscid)"))
(cx-gui-do cx-set-list-tree-selections "NavigationPane*Frame2*Table1*List_Tree2" (list "Setup|Models|Viscous (Inviscid)"))
(cx-gui-do cx-activate-item "NavigationPane*Frame2*Table1*List_Tree2")
(cx-gui-do cx-set-list-tree-selections "NavigationPane*Frame2*Table1*List_Tree2" (list "Setup|Models|Viscous (Inviscid)"))
(cx-gui-do cx-set-list-tree-selections "NavigationPane*Frame2*Table1*List_Tree2" (list "Setup|Models|Viscous (Inviscid)"))
(cx-gui-do cx-set-list-tree-selections "NavigationPane*Frame2*Table1*List_Tree2" (list "Setup|Models|Viscous (Inviscid)"))
(cx-gui-do cx-set-list-tree-selections "NavigationPane*Frame2*Table1*List_Tree2" (list "Setup|Models|Viscous (Inviscid)"))
(cx-gui-do cx-activate-item "NavigationPane*Frame2*Table1*List_Tree2")
(cx-gui-do cx-set-list-tree-selections "NavigationPane*Frame2*Table1*List_Tree2" (list "Setup|Models|Viscous (Inviscid)"))
(cx-gui-do cx-set-list-tree-selections "NavigationPane*Frame2*Table1*List_Tree2" (list "Setup|Models|Viscous (Inviscid)"))
(cx-gui-do cx-set-list-tree-selections "NavigationPane*Frame2*Table1*List_Tree2" (list "Setup|Models|Viscous (Inviscid)"))
(cx-gui-do cx-activate-item "NavigationPane*Frame2*Table1*List_Tree2")
(cx-gui-do cx-set-list-tree-selections "NavigationPane*Frame2*Table1*List_Tree2" (list "Setup|Models|Viscous (Inviscid)"))
(cx-gui-do cx-set-list-tree-selections "NavigationPane*Frame2*Table1*List_Tree2" (list "Setup|Models|Viscous (Inviscid)"))
(cx-gui-do cx-set-list-tree-selections "NavigationPane*Frame2*Table1*List_Tree2" (list "Setup|Models|Viscous (Inviscid)"))
(cx-gui-do cx-activate-item "NavigationPane*Frame2*Table1*List_Tree2")
(cx-gui-do cx-set-list-tree-selections "NavigationPane*Frame2*Table1*List_Tree2" (list "Setup|Models|Viscous (Inviscid)"))
(cx-gui-do cx-activate-item "Ribbon*Frame1*Frame3(Physics)*Table1*Table3(Models)*PushButton4(Viscous)")
(cx-gui-do cx-activate-item "Boundary Conditions*Table1*Table3*Table4*Table2*PushButton2(Operating Conditions)")
(cx-gui-do cx-activate-item "Operating Conditions*PanelButtons*PushButton2(Cancel)")
(cx-gui-do cx-set-toggle-button2 "Ribbon*Frame1*Frame3(Physics)*Table1*Table3(Models)*CheckButton1(Energy)" #f)
(cx-gui-do cx-activate-item "Ribbon*Frame1*Frame3(Physics)*Table1*Table3(Models)*CheckButton1(Energy)")

Note: Enabling energy equation as required by material density method.
(cx-gui-do cx-set-toggle-button2 "Ribbon*Frame1*Frame3(Physics)*Table1*Table3(Models)*CheckButton1(Energy)" #f)
(cx-gui-do cx-activate-item "Ribbon*Frame1*Frame3(Physics)*Table1*Table3(Models)*CheckButton1(Energy)")

Note: Enabling energy equation as required by material density method.
(cx-gui-do cx-set-list-tree-selections "NavigationPane*Frame2*Table1*List_Tree2" (list "Setup|Models|Viscous (Inviscid)"))
(cx-gui-do cx-set-list-tree-selections "NavigationPane*Frame2*Table1*List_Tree2" (list "Setup|Models|Viscous (Inviscid)"))
(cx-gui-do cx-activate-item "NavigationPane*Frame2*Table1*List_Tree2")
(cx-gui-do cx-set-list-tree-selections "NavigationPane*Frame2*Table1*List_Tree2" (list "Setup|Models|Viscous (Inviscid)"))
(cx-gui-do cx-set-list-tree-selections "NavigationPane*Frame2*Table1*List_Tree2" (list "Setup|Models|Viscous (Inviscid)"))
(cx-gui-do cx-list-tree-right-click "NavigationPane*Frame2*Table1*List_Tree2" )
(cx-gui-do cx-activate-item "MenuBar*PopupMenuTree-Viscous (Inviscid)*Edit...")
(cx-gui-do cx-set-list-tree-selections "NavigationPane*Frame2*Table1*List_Tree2" (list "Setup|Models|Viscous (Inviscid)"))
(cx-gui-do cx-list-tree-right-click "NavigationPane*Frame2*Table1*List_Tree2" )
(cx-gui-do cx-set-toggle-button2 "Viscous Model*Table1*ToggleBox1(Model)*Laminar" #t)
(cx-gui-do cx-activate-item "Viscous Model*Table1*ToggleBox1(Model)*Laminar")
(cx-gui-do cx-activate-item "Viscous Model*PanelButtons*PushButton1(OK)")
(cx-gui-do cx-set-list-tree-selections "NavigationPane*Frame2*Table1*List_Tree2" (list "Setup|Models|Viscous (Laminar)"))
(cx-gui-do cx-set-list-tree-selections "NavigationPane*Frame2*Table1*List_Tree2" (list "Setup|Boundary Conditions|Inlet|inlet (pressure-inlet, id=42)"))
(cx-gui-do cx-set-list-tree-selections "NavigationPane*Frame2*Table1*List_Tree2" (list "Setup|Boundary Conditions|Inlet|inlet (pressure-inlet, id=42)"))
(cx-gui-do cx-activate-item "NavigationPane*Frame2*Table1*List_Tree2")
(cx-gui-do cx-set-list-tree-selections "NavigationPane*Frame2*Table1*List_Tree2" (list "Setup|Boundary Conditions|Inlet|inlet (pressure-inlet, id=42)"))
(cx-gui-do cx-activate-tab-index "Pressure Inlet*Frame2*Frame2" 1)
(cx-gui-do cx-activate-item "Pressure Inlet*PanelButtons*PushButton2(Cancel)")
(cx-gui-do cx-set-list-tree-selections "NavigationPane*Frame2*Table1*List_Tree2" (list "Solution|Initialization"))
(cx-gui-do cx-activate-item "Ribbon*Frame1*Frame5(Solution)*Table1*Table3(Initialization)*PushButton6(Initialize)")
(cx-gui-do cx-activate-item "Question*OK")

Initialize using the hybrid initialization method.

Checking case topology... 
-This case has both inlets & outlets 
-Pressure information is available at the boundaries

	iter		scalar-0		scalar-1

	1		1.000000e+00	1.000000e+00
	2		1.148894e-05	1.489414e-05
	3		1.833863e-06	2.405995e-06
	4		4.538995e-07	3.829723e-07
	5		1.171335e-07	1.092966e-07
	6		3.660518e-08	3.054613e-08
	7		1.176632e-08	9.417056e-09
	8		3.933537e-09	2.931137e-09
	9		1.359631e-09	9.554770e-10
	10		4.872897e-10	3.247122e-10

Hybrid initialization is done.
(cx-gui-do cx-activate-item "Ribbon*Frame1*Frame5(Solution)*Table1*PushButton1(Run Calculation)")
(cx-gui-do cx-activate-item "Ribbon*Frame1*Frame5(Solution)*Table1*Table3(Run Calculation)*PushButton9(Calculate)")


  iter  continuity  x-velocity  y-velocity  z-velocity      energy     time/iter
     1  1.0000e+00  1.0000e+00  1.0000e+00  1.0000e+00  1.0000e+00  0:23:56  499
     2  7.2257e-01  7.9408e-01  5.8705e-01  5.8980e-01  7.2086e-01  0:24:49  498
     3  7.0331e-01  8.0378e-01  3.2971e-01  3.3077e-01  7.0241e-01  0:24:20  497
     4  7.0998e-01  8.0133e-01  2.4527e-01  2.4668e-01  7.1103e-01  0:23:59  496
     5  7.5584e-01  8.0942e-01  2.0793e-01  2.0929e-01  7.5920e-01  0:23:45  495
     6  8.3077e-01  8.5571e-01  1.7586e-01  1.7682e-01  8.3660e-01  0:23:28  494
     7  9.2471e-01  9.3346e-01  1.5429e-01  1.5405e-01  9.3386e-01  0:23:14  493
     8  1.0352e+00  1.0305e+00  1.6275e-01  1.6300e-01  1.0488e+00  0:23:03  492
     9  1.1582e+00  1.1376e+00  1.9439e-01  1.9512e-01  1.1775e+00  0:23:00  491
    10  1.2833e+00  1.2468e+00  2.3396e-01  2.3493e-01  1.3091e+00  0:22:50  490
    11  1.3991e+00  1.3540e+00  2.7506e-01  2.7651e-01  1.4322e+00  0:22:42  489

  iter  continuity  x-velocity  y-velocity  z-velocity      energy     time/iter
    12  1.5002e+00  1.4568e+00  3.1745e-01  3.1930e-01  1.5411e+00  0:22:35  488
    13  1.5857e+00  1.5544e+00  3.6080e-01  3.6304e-01  1.6347e+00  0:22:35  487
    14  1.6536e+00  1.6453e+00  4.0554e-01  4.0803e-01  1.7109e+00  0:22:47  486
    15  1.7037e+00  1.7281e+00  4.5075e-01  4.5336e-01  1.7692e+00  0:23:37  485
    16  1.7395e+00  1.8029e+00  4.9265e-01  4.9533e-01  1.8129e+00  0:25:02  484

 Reversed flow on 35 faces (0.1% area) of pressure-outlet 46.
    17  1.7651e+00  1.8698e+00  5.2714e-01  5.2998e-01  1.8460e+00  0:27:09  483

 Reversed flow on 62 faces (0.1% area) of pressure-outlet 46.
    18  1.7808e+00  1.9243e+00  5.5345e-01  5.5645e-01  1.8683e+00  0:28:33  482

 Reversed flow on 72 faces (0.2% area) of pressure-outlet 46.
    19  1.7858e+00  1.9654e+00  5.7138e-01  5.7459e-01  1.8789e+00  0:28:47  481

 Reversed flow on 124 faces (0.4% area) of pressure-outlet 46.
    20  1.7794e+00  1.9920e+00  5.8082e-01  5.8428e-01  1.8769e+00  0:30:31  480

 Reversed flow on 172 faces (0.6% area) of pressure-outlet 46.
    21  1.7620e+00  2.0008e+00  5.8349e-01  5.8733e-01  1.8625e+00  0:30:31  479

 Reversed flow on 249 faces (1.0% area) of pressure-outlet 46.
    22  1.7358e+00  1.9927e+00  5.7937e-01  5.8357e-01  1.8379e+00  0:29:51  478

 Reversed flow on 366 faces (1.4% area) of pressure-outlet 46.

  iter  continuity  x-velocity  y-velocity  z-velocity      energy     time/iter
    23  1.7008e+00  1.9662e+00  5.6941e-01  5.7398e-01  1.8030e+00  0:29:33  477

 Reversed flow on 553 faces (2.2% area) of pressure-outlet 46.
    24  1.6567e+00  1.9188e+00  5.5583e-01  5.6069e-01  1.7573e+00  0:29:18  476

 Reversed flow on 1480 faces (5.7% area) of pressure-outlet 46.
    25  1.6000e+00  1.8563e+00  5.3801e-01  5.4373e-01  1.6972e+00  0:29:10  475

 Reversed flow on 3124 faces (11.7% area) of pressure-outlet 46.
    26  1.5273e+00  1.7759e+00  5.1427e-01  5.1995e-01  1.6194e+00  0:29:16  474

 Reversed flow on 4264 faces (16.0% area) of pressure-outlet 46.
    27  1.4386e+00  1.6776e+00  4.8629e-01  4.9182e-01  1.5238e+00  0:29:02  473

 Reversed flow on 4995 faces (18.7% area) of pressure-outlet 46.
    28  1.3352e+00  1.5691e+00  4.5588e-01  4.6130e-01  1.4119e+00  0:29:01  472

 Reversed flow on 5403 faces (20.2% area) of pressure-outlet 46.
    29  1.2140e+00  1.4447e+00  4.2375e-01  4.2868e-01  1.2806e+00  0:28:46  471

 Reversed flow on 5757 faces (21.5% area) of pressure-outlet 46.
    30  1.0758e+00  1.3132e+00  3.8994e-01  3.9428e-01  1.1310e+00  0:28:39  470

 Reversed flow on 6006 faces (22.5% area) of pressure-outlet 46.
    31  9.2534e-01  1.1858e+00  3.5430e-01  3.5802e-01  9.6831e-01  0:28:24  469

 Reversed flow on 6221 faces (23.3% area) of pressure-outlet 46.
    32  7.6606e-01  1.0691e+00  3.1775e-01  3.2082e-01  7.9655e-01  0:27:55  468

 Reversed flow on 6372 faces (23.9% area) of pressure-outlet 46.

 time step reduced in 6 cells due to excessive temperature change
    33  6.0466e-01  9.7519e-01  2.8226e-01  2.8462e-01  6.2373e-01  0:27:23  467

 Reversed flow on 6539 faces (24.5% area) of pressure-outlet 46.

 time step reduced in 16 cells due to excessive temperature change

  iter  continuity  x-velocity  y-velocity  z-velocity      energy     time/iter
    34  4.5702e-01  9.2461e-01  2.5071e-01  2.5236e-01  4.6897e-01  0:26:48  466

 Reversed flow on 6735 faces (25.3% area) of pressure-outlet 46.

 time step reduced in 40 cells due to excessive temperature change
    35  3.5599e-01  9.2409e-01  2.2622e-01  2.2740e-01  3.7139e-01  0:26:06  465

 Reversed flow on 7000 faces (26.3% area) of pressure-outlet 46.

 time step reduced in 93 cells due to excessive temperature change
    36  3.5108e-01  9.6733e-01  2.1154e-01  2.1267e-01  3.8293e-01  0:26:07  464

 Reversed flow on 7207 faces (27.0% area) of pressure-outlet 46.

 time step reduced in 130 cells due to excessive temperature change
    37  4.4274e-01  1.0406e+00  2.0815e-01  2.0971e-01  4.9199e-01  0:26:01  463

 Reversed flow on 7385 faces (27.7% area) of pressure-outlet 46.

 time step reduced in 152 cells due to excessive temperature change
    38  5.8196e-01  1.1296e+00  2.1533e-01  2.1746e-01  6.4471e-01  0:25:59  462

 Reversed flow on 7550 faces (28.3% area) of pressure-outlet 46.

 time step reduced in 158 cells due to excessive temperature change
    39  7.3549e-01  1.2228e+00  2.3060e-01  2.3324e-01  8.0898e-01  0:25:50  461

 Reversed flow on 7714 faces (28.9% area) of pressure-outlet 46.

 time step reduced in 160 cells due to excessive temperature change
    40  8.8658e-01  1.3119e+00  2.5124e-01  2.5419e-01  9.6871e-01  0:25:50  460

 Reversed flow on 7878 faces (29.6% area) of pressure-outlet 46.

 time step reduced in 162 cells due to excessive temperature change
    41  1.0265e+00  1.3905e+00  2.7475e-01  2.7778e-01  1.1154e+00  0:26:18  459

 Reversed flow on 8050 faces (30.2% area) of pressure-outlet 46.

 time step reduced in 177 cells due to excessive temperature change
    42  1.1511e+00  1.4543e+00  2.9893e-01  3.0189e-01  1.2449e+00  0:26:43  458

 Reversed flow on 8230 faces (30.9% area) of pressure-outlet 46.

 time step reduced in 192 cells due to excessive temperature change
    43  1.2588e+00  1.5011e+00  3.2207e-01  3.2483e-01  1.3556e+00  0:26:46  457

 Reversed flow on 8407 faces (31.6% area) of pressure-outlet 46.
Temperature limited to 1.000000e+00 in 14 cells during the last 11 iterations

 time step reduced in 183 cells due to excessive temperature change
    44  1.3506e+00  1.5299e+00  3.4300e-01  3.4557e-01  1.4484e+00  0:26:45  456

 Reversed flow on 8569 faces (32.2% area) of pressure-outlet 46.

 time step reduced in 214 cells due to excessive temperature change

  iter  continuity  x-velocity  y-velocity  z-velocity      energy     time/iter
    45  1.4290e+00  1.5411e+00  3.6144e-01  3.6385e-01  1.5260e+00  0:26:08  455

 Reversed flow on 8749 faces (32.9% area) of pressure-outlet 46.

Divergence detected - temporarily reducing Courant number to 0.5
 and trying again...
    46  1.4910e+00  1.5338e+00  3.7778e-01  3.7988e-01  1.5855e+00  0:32:20  454

 Reversed flow on 8758 faces (32.9% area) of pressure-outlet 46.
    47  1.4963e+00  1.5342e+00  3.8009e-01  3.8215e-01  1.5910e+00  0:30:05  453

 Reversed flow on 8781 faces (33.0% area) of pressure-outlet 46.
    48  1.5010e+00  1.5344e+00  3.8247e-01  3.8450e-01  1.5959e+00  0:28:22  452

 Reversed flow on 8821 faces (33.2% area) of pressure-outlet 46.
    49  1.5065e+00  1.5342e+00  3.8525e-01  3.8727e-01  1.6015e+00  0:26:52  451

 Reversed flow on 8852 faces (33.3% area) of pressure-outlet 46.
    50  1.5133e+00  1.5332e+00  3.8833e-01  3.9035e-01  1.6083e+00  0:25:35  450

 Reversed flow on 8885 faces (33.4% area) of pressure-outlet 46.
    51  1.5217e+00  1.5306e+00  3.9167e-01  3.9371e-01  1.6166e+00  0:24:41  449

 Reversed flow on 8942 faces (33.7% area) of pressure-outlet 46.
    52  1.5318e+00  1.5252e+00  3.9524e-01  3.9728e-01  1.6261e+00  0:23:49  448

 Reversed flow on 9014 faces (33.9% area) of pressure-outlet 46.
    53  1.5431e+00  1.5156e+00  3.9901e-01  4.0098e-01  1.6363e+00  0:23:06  447

 Reversed flow on 9086 faces (34.2% area) of pressure-outlet 46.

 time step reduced in 26 cells due to excessive temperature change
    54  1.5542e+00  1.4997e+00  4.0281e-01  4.0468e-01  1.6458e+00  0:22:26  446

 Reversed flow on 9200 faces (34.6% area) of pressure-outlet 46.
Temperature limited to 1.000000e+00 in 15 cells during the last 11 iterations

 time step reduced in 113 cells due to excessive temperature change
    55  1.5640e+00  1.4751e+00  4.0637e-01  4.0811e-01  1.6531e+00  0:22:06  445

 Reversed flow on 9347 faces (35.2% area) of pressure-outlet 46.

Divergence detected - temporarily reducing Courant number to 0.372529
 and trying again...

  iter  continuity  x-velocity  y-velocity  z-velocity      energy     time/iter
    56  1.5706e+00  1.4387e+00  4.0937e-01  4.1099e-01  1.6562e+00  0:30:41  444

 Reversed flow on 9356 faces (35.2% area) of pressure-outlet 46.
    57  1.5717e+00  1.4345e+00  4.1030e-01  4.1190e-01  1.6569e+00  0:28:21  443

 Reversed flow on 9367 faces (35.3% area) of pressure-outlet 46.
    58  1.5726e+00  1.4301e+00  4.1127e-01  4.1285e-01  1.6575e+00  0:26:24  442

 Reversed flow on 9383 faces (35.3% area) of pressure-outlet 46.
    59  1.5733e+00  1.4246e+00  4.1244e-01  4.1401e-01  1.6579e+00  0:24:50  441

 Reversed flow on 9392 faces (35.4% area) of pressure-outlet 46.
    60  1.5737e+00  1.4173e+00  4.1378e-01  4.1533e-01  1.6577e+00  0:23:38  440

 Reversed flow on 9408 faces (35.4% area) of pressure-outlet 46.
    61  1.5734e+00  1.4078e+00  4.1522e-01  4.1674e-01  1.6567e+00  0:22:44  439

 Reversed flow on 9439 faces (35.5% area) of pressure-outlet 46.
    62  1.5717e+00  1.3954e+00  4.1664e-01  4.1810e-01  1.6540e+00  0:21:56  438

 Reversed flow on 9507 faces (35.8% area) of pressure-outlet 46.
    63  1.5676e+00  1.3791e+00  4.1779e-01  4.1925e-01  1.6487e+00  0:21:18  437

 Reversed flow on 9557 faces (36.0% area) of pressure-outlet 46.
    64  1.5603e+00  1.3575e+00  4.1843e-01  4.1990e-01  1.6399e+00  0:20:48  436

 Reversed flow on 9610 faces (36.2% area) of pressure-outlet 46.

 time step reduced in 12 cells due to excessive temperature change
    65  1.5492e+00  1.3290e+00  4.1812e-01  4.1962e-01  1.6268e+00  0:20:27  435

 Reversed flow on 9708 faces (36.6% area) of pressure-outlet 46.
Temperature limited to 1.000000e+00 in 1 cells during the last 11 iterations

 time step reduced in 99 cells due to excessive temperature change
    66  1.5334e+00  1.2918e+00  4.1624e-01  4.1776e-01  1.6084e+00  0:21:00  434

 Reversed flow on 9800 faces (37.0% area) of pressure-outlet 46.

Divergence detected - temporarily reducing Courant number to 0.346945
 and trying again...

  iter  continuity  x-velocity  y-velocity  z-velocity      energy     time/iter
    67  1.5120e+00  1.2434e+00  4.1188e-01  4.1345e-01  1.5835e+00  0:29:16  433

 Reversed flow on 9818 faces (37.0% area) of pressure-outlet 46.
    68  1.5091e+00  1.2376e+00  4.1188e-01  4.1347e-01  1.5803e+00  0:27:28  432

 Reversed flow on 9815 faces (37.0% area) of pressure-outlet 46.
    69  1.5061e+00  1.2318e+00  4.1186e-01  4.1347e-01  1.5770e+00  0:25:52  431

 Reversed flow on 9820 faces (37.1% area) of pressure-outlet 46.
    70  1.5022e+00  1.2245e+00  4.1174e-01  4.1335e-01  1.5728e+00  0:24:36  430

 Reversed flow on 9827 faces (37.1% area) of pressure-outlet 46.
    71  1.4974e+00  1.2152e+00  4.1138e-01  4.1301e-01  1.5675e+00  0:23:35  429

 Reversed flow on 9824 faces (37.1% area) of pressure-outlet 46.
    72  1.4912e+00  1.2034e+00  4.1063e-01  4.1228e-01  1.5606e+00  0:23:06  428

 Reversed flow on 9831 faces (37.1% area) of pressure-outlet 46.
    73  1.4836e+00  1.1884e+00  4.0926e-01  4.1092e-01  1.5521e+00  0:23:05  427

 Reversed flow on 9863 faces (37.2% area) of pressure-outlet 46.
    74  1.4742e+00  1.1692e+00  4.0696e-01  4.0863e-01  1.5415e+00  0:23:50  426

 Reversed flow on 9899 faces (37.4% area) of pressure-outlet 46.
    75  1.4627e+00  1.1448e+00  4.0341e-01  4.0511e-01  1.5283e+00  0:24:27  425

 Reversed flow on 9917 faces (37.5% area) of pressure-outlet 46.

 time step reduced in 7 cells due to excessive temperature change
    76  1.4487e+00  1.1137e+00  3.9825e-01  3.9994e-01  1.5122e+00  0:25:21  424

 Reversed flow on 9965 faces (37.7% area) of pressure-outlet 46.
Temperature limited to 1.000000e+00 in 2 cells during the last 11 iterations
Absolute pressure limited to 1.000000e+00 in 2 cells during the last 11 iterations

 time step reduced in 10 cells due to excessive temperature change

 absolute pressure limited to 1.000000e+00 in 1 cells on zone 2297 
    77  1.4316e+00  1.0747e+00  3.9098e-01  3.9267e-01  1.4925e+00  0:26:17  423

 Reversed flow on 9977 faces (37.8% area) of pressure-outlet 46.

 time step reduced in 47 cells due to excessive temperature change

 absolute pressure limited to 1.000000e+00 in 1 cells on zone 2297 

  iter  continuity  x-velocity  y-velocity  z-velocity      energy     time/iter
    78  1.4149e+00  1.0360e+00  3.8323e-01  3.8500e-01  1.4733e+00  0:26:12  422

 Reversed flow on 10052 faces (38.1% area) of pressure-outlet 46.

Divergence detected - temporarily reducing Courant number to 0.265436
 and trying again...

 absolute pressure limited to 1.000000e+00 in 2 cells on zone 2297 
    79  1.3964e+00  9.9290e-01  3.7362e-01  3.7543e-01  1.4521e+00  0:29:27  421

 Reversed flow on 10050 faces (38.1% area) of pressure-outlet 46.

 absolute pressure limited to 1.000000e+00 in 2 cells on zone 2297 
    80  1.3943e+00  9.8805e-01  3.7277e-01  3.7459e-01  1.4498e+00  0:27:44  420

 Reversed flow on 10051 faces (38.1% area) of pressure-outlet 46.

 absolute pressure limited to 1.000000e+00 in 2 cells on zone 2297 
    81  1.3922e+00  9.8323e-01  3.7191e-01  3.7374e-01  1.4474e+00  0:26:03  419

 Reversed flow on 10053 faces (38.1% area) of pressure-outlet 46.

 absolute pressure limited to 1.000000e+00 in 2 cells on zone 2297 
    82  1.3895e+00  9.7723e-01  3.7081e-01  3.7264e-01  1.4445e+00  0:24:49  418

 Reversed flow on 10049 faces (38.1% area) of pressure-outlet 46.

 absolute pressure limited to 1.000000e+00 in 2 cells on zone 2297 
    83  1.3862e+00  9.6979e-01  3.6936e-01  3.7120e-01  1.4408e+00  0:24:00  417

 Reversed flow on 10042 faces (38.0% area) of pressure-outlet 46.

 absolute pressure limited to 1.000000e+00 in 2 cells on zone 2297 
    84  1.3821e+00  9.6055e-01  3.6745e-01  3.6931e-01  1.4362e+00  0:23:16  416

 Reversed flow on 10043 faces (38.1% area) of pressure-outlet 46.

 absolute pressure limited to 1.000000e+00 in 2 cells on zone 2297 
    85  1.3780e+00  9.5139e-01  3.6548e-01  3.6734e-01  1.4316e+00  0:22:21  415

 Reversed flow on 10039 faces (38.0% area) of pressure-outlet 46.

 absolute pressure limited to 1.000000e+00 in 2 cells on zone 2297 
    86  1.3729e+00  9.4004e-01  3.6286e-01  3.6472e-01  1.4259e+00  0:22:38  414

 Reversed flow on 10053 faces (38.1% area) of pressure-outlet 46.

 absolute pressure limited to 1.000000e+00 in 2 cells on zone 2297 
    87  1.3668e+00  9.2605e-01  3.5938e-01  3.6125e-01  1.4191e+00  0:22:11  413

 Reversed flow on 10079 faces (38.2% area) of pressure-outlet 46.
Temperature limited to 1.000000e+00 in 3 cells during the last 11 iterations
Absolute pressure limited to 1.000000e+00 in 23 cells during the last 11 iterations

 time step reduced in 1 cells due to excessive temperature change

 absolute pressure limited to 1.000000e+00 in 2 cells on zone 2297 
    88  1.3596e+00  9.0888e-01  3.5474e-01  3.5664e-01  1.4109e+00  0:22:08  412

 Reversed flow on 10094 faces (38.3% area) of pressure-outlet 46.

 absolute pressure limited to 1.000000e+00 in 3 cells on zone 2297 

  iter  continuity  x-velocity  y-velocity  z-velocity      energy     time/iter
    89  1.3527e+00  8.9209e-01  3.4993e-01  3.5186e-01  1.4031e+00  0:21:31  411

 Reversed flow on 10102 faces (38.3% area) of pressure-outlet 46.

 absolute pressure limited to 1.000000e+00 in 3 cells on zone 2297 
    90  1.3449e+00  8.7176e-01  3.4362e-01  3.4559e-01  1.3941e+00  0:21:30  410

 Reversed flow on 10130 faces (38.4% area) of pressure-outlet 46.

 time step reduced in 3 cells due to excessive temperature change

 absolute pressure limited to 1.000000e+00 in 3 cells on zone 2297 
    91  1.3363e+00  8.4754e-01  3.3543e-01  3.3745e-01  1.3841e+00  0:22:14  409

 Reversed flow on 10180 faces (38.6% area) of pressure-outlet 46.

 time step reduced in 72 cells due to excessive temperature change

 absolute pressure limited to 1.000000e+00 in 3 cells on zone 2297 
    92  1.3274e+00  8.1943e-01  3.2497e-01  3.2706e-01  1.3734e+00  0:22:31  408

 Reversed flow on 10231 faces (38.9% area) of pressure-outlet 46.

Divergence detected - temporarily reducing Courant number to 0.247207
 and trying again...

 absolute pressure limited to 1.000000e+00 in 3 cells on zone 2297 
    93  1.3191e+00  7.8811e-01  3.1194e-01  3.1409e-01  1.3631e+00  0:31:51  407

 Reversed flow on 10230 faces (38.9% area) of pressure-outlet 46.

 absolute pressure limited to 1.000000e+00 in 3 cells on zone 2297 
    94  1.3184e+00  7.8492e-01  3.1077e-01  3.1294e-01  1.3622e+00  0:30:10  406

 Reversed flow on 10223 faces (38.9% area) of pressure-outlet 46.

 absolute pressure limited to 1.000000e+00 in 3 cells on zone 2297 
    95  1.3176e+00  7.8178e-01  3.0961e-01  3.1178e-01  1.3613e+00  0:28:30  405

 Reversed flow on 10223 faces (38.9% area) of pressure-outlet 46.

 absolute pressure limited to 1.000000e+00 in 3 cells on zone 2297 
    96  1.3168e+00  7.7794e-01  3.0813e-01  3.1032e-01  1.3603e+00  0:27:12  404

 Reversed flow on 10220 faces (38.8% area) of pressure-outlet 46.

 absolute pressure limited to 1.000000e+00 in 3 cells on zone 2297 
    97  1.3160e+00  7.7416e-01  3.0665e-01  3.0886e-01  1.3592e+00  0:26:02  403

 Reversed flow on 10207 faces (38.8% area) of pressure-outlet 46.

 absolute pressure limited to 1.000000e+00 in 3 cells on zone 2297 
    98  1.3150e+00  7.6955e-01  3.0478e-01  3.0700e-01  1.3580e+00  0:25:00  402

 Reversed flow on 10194 faces (38.8% area) of pressure-outlet 46.
Temperature limited to 1.000000e+00 in 10 cells during the last 11 iterations
Absolute pressure limited to 1.000000e+00 in 33 cells during the last 11 iterations

 absolute pressure limited to 1.000000e+00 in 3 cells on zone 2297 
    99  1.3138e+00  7.6395e-01  3.0240e-01  3.0464e-01  1.3564e+00  0:24:26  401

 Reversed flow on 10132 faces (38.5% area) of pressure-outlet 46.

 absolute pressure limited to 1.000000e+00 in 3 cells on zone 2297 

  iter  continuity  x-velocity  y-velocity  z-velocity      energy     time/iter
   100  1.3124e+00  7.5720e-01  2.9938e-01  3.0165e-01  1.3547e+00  0:23:53  400

 Reversed flow on 10077 faces (38.4% area) of pressure-outlet 46.

 absolute pressure limited to 1.000000e+00 in 3 cells on zone 2297 
   101  1.3112e+00  7.5068e-01  2.9635e-01  2.9864e-01  1.3530e+00  0:23:27  399

 Reversed flow on 9994 faces (38.1% area) of pressure-outlet 46.

 absolute pressure limited to 1.000000e+00 in 3 cells on zone 2297 
   102  1.3100e+00  7.4291e-01  2.9252e-01  2.9484e-01  1.3512e+00  0:23:10  398

 Reversed flow on 9877 faces (37.6% area) of pressure-outlet 46.

 absolute pressure limited to 1.000000e+00 in 3 cells on zone 2297 
   103  1.3087e+00  7.3379e-01  2.8771e-01  2.9005e-01  1.3493e+00  0:22:58  397

 Reversed flow on 9708 faces (37.0% area) of pressure-outlet 46.

 absolute pressure limited to 1.000000e+00 in 3 cells on zone 2297 
   104  1.3078e+00  7.2332e-01  2.8170e-01  2.8409e-01  1.3476e+00  0:22:45  396

 Reversed flow on 9555 faces (36.5% area) of pressure-outlet 46.

 Reversed flow on 2 faces (5.3% area) of pressure-inlet 42.

 time step reduced in 3 cells due to excessive temperature change

 absolute pressure limited to 1.000000e+00 in 3 cells on zone 2297 
   105  1.3075e+00  7.1172e-01  2.7434e-01  2.7676e-01  1.3463e+00  0:22:06  395

 Reversed flow on 9396 faces (35.9% area) of pressure-outlet 46.

 Reversed flow on 5 faces (11.5% area) of pressure-inlet 42.

 time step reduced in 44 cells due to excessive temperature change

 absolute pressure limited to 1.000000e+00 in 3 cells on zone 2297 
   106  1.3085e+00  6.9952e-01  2.6554e-01  2.6798e-01  1.3461e+00  0:21:36  394

 Reversed flow on 9132 faces (34.8% area) of pressure-outlet 46.

 Reversed flow on 9 faces (14.6% area) of pressure-inlet 42.

 time step reduced in 82 cells due to excessive temperature change

 absolute pressure limited to 1.000000e+00 in 3 cells on zone 2297 
   107  1.3116e+00  6.8763e-01  2.5550e-01  2.5793e-01  1.3477e+00  0:21:22  393

 Reversed flow on 8876 faces (33.8% area) of pressure-outlet 46.

 Reversed flow on 22 faces (18.6% area) of pressure-inlet 42.

 time step reduced in 296 cells due to excessive temperature change

 absolute pressure limited to 1.000000e+00 in 3 cells on zone 2297 
   108  1.3163e+00  6.7879e-01  2.4665e-01  2.4904e-01  1.3509e+00  0:20:57  392

 Reversed flow on 8652 faces (33.0% area) of pressure-outlet 46.

 Reversed flow on 44 faces (24.6% area) of pressure-inlet 42.

Divergence detected - temporarily reducing Courant number to 0.284183
 and trying again...

 time step reduced in 2 cells due to excessive temperature change

 absolute pressure limited to 1.000000e+00 in 4 cells on zone 2297 
   109  1.3231e+00  6.7238e-01  2.3868e-01  2.4112e-01  1.3564e+00  0:26:24  391

 Reversed flow on 8609 faces (32.8% area) of pressure-outlet 46.

 Reversed flow on 45 faces (25.1% area) of pressure-inlet 42.
Temperature limited to 1.000000e+00 in 98 cells during the last 11 iterations
Temperature limited to 5.000000e+03 in 46 cells during the last 11 iterations
Absolute pressure limited to 1.000000e+00 in 106 cells during the last 11 iterations

 time step reduced in 1 cells due to excessive temperature change

 absolute pressure limited to 1.000000e+00 in 3 cells on zone 2297 

 temperature limited to 5.000000e+03 in 21 cells on zone 2297 
   110  1.3240e+00  6.7160e-01  2.3777e-01  2.4015e-01  1.3571e+00  0:24:46  390

 Reversed flow on 8568 faces (32.7% area) of pressure-outlet 46.

 Reversed flow on 46 faces (25.3% area) of pressure-inlet 42.

 time step reduced in 2 cells due to excessive temperature change

 absolute pressure limited to 1.000000e+00 in 3 cells on zone 2297 

 temperature limited to 5.000000e+03 in 23 cells on zone 2297 

  iter  continuity  x-velocity  y-velocity  z-velocity      energy     time/iter
   111  1.3250e+00  6.7088e-01  2.3687e-01  2.3922e-01  1.3578e+00  0:23:44  389

 Reversed flow on 8494 faces (32.4% area) of pressure-outlet 46.

 Reversed flow on 47 faces (25.5% area) of pressure-inlet 42.

 time step reduced in 7 cells due to excessive temperature change

 absolute pressure limited to 1.000000e+00 in 4 cells on zone 2297 

 temperature limited to 5.000000e+03 in 24 cells on zone 2297 
   112  1.3262e+00  6.7008e-01  2.3580e-01  2.3813e-01  1.3588e+00  0:22:41  388

 Reversed flow on 8442 faces (32.2% area) of pressure-outlet 46.

 Reversed flow on 51 faces (26.2% area) of pressure-inlet 42.

 time step reduced in 17 cells due to excessive temperature change

 absolute pressure limited to 1.000000e+00 in 4 cells on zone 2297 

 temperature limited to 5.000000e+03 in 34 cells on zone 2297 
   113  1.3277e+00  6.6923e-01  2.3456e-01  2.3688e-01  1.3601e+00  0:21:52  387

 Reversed flow on 8358 faces (31.9% area) of pressure-outlet 46.

 Reversed flow on 57 faces (27.3% area) of pressure-inlet 42.

 time step reduced in 49 cells due to excessive temperature change

 absolute pressure limited to 1.000000e+00 in 3 cells on zone 2297 

 temperature limited to 5.000000e+03 in 31 cells on zone 2297 
   114  1.3297e+00  6.6833e-01  2.3309e-01  2.3541e-01  1.3617e+00  0:21:15  386

 Reversed flow on 8250 faces (31.5% area) of pressure-outlet 46.

 Reversed flow on 67 faces (28.9% area) of pressure-inlet 42.

 time step reduced in 37 cells due to excessive temperature change

 absolute pressure limited to 1.000000e+00 in 4 cells on zone 2297 

 temperature limited to 5.000000e+03 in 51 cells on zone 2297 
   115  1.3321e+00  6.6737e-01  2.3137e-01  2.3366e-01  1.3637e+00  0:21:08  385

 Reversed flow on 8127 faces (31.0% area) of pressure-outlet 46.

 Reversed flow on 72 faces (30.0% area) of pressure-inlet 42.

 time step reduced in 48 cells due to excessive temperature change

 absolute pressure limited to 1.000000e+00 in 4 cells on zone 2297 

 temperature limited to 5.000000e+03 in 74 cells on zone 2297 
   116  1.3353e+00  6.6654e-01  2.2940e-01  2.3164e-01  1.3663e+00  0:21:21  384

 Reversed flow on 8035 faces (30.6% area) of pressure-outlet 46.

 Reversed flow on 85 faces (32.1% area) of pressure-inlet 42.

 time step reduced in 41 cells due to excessive temperature change

 absolute pressure limited to 1.000000e+00 in 4 cells on zone 2297 

 temperature limited to 5.000000e+03 in 83 cells on zone 2297 
   117  1.3393e+00  6.6598e-01  2.2719e-01  2.2937e-01  1.3697e+00  0:21:36  383

 Reversed flow on 7912 faces (30.2% area) of pressure-outlet 46.

 Reversed flow on 96 faces (33.9% area) of pressure-inlet 42.

 time step reduced in 75 cells due to excessive temperature change

 absolute pressure limited to 1.000000e+00 in 4 cells on zone 2297 

 temperature limited to 5.000000e+03 in 90 cells on zone 2297 
   118  1.3435e+00  6.6585e-01  2.2526e-01  2.2736e-01  1.3732e+00  0:21:41  382

 Reversed flow on 7832 faces (29.9% area) of pressure-outlet 46.

 Reversed flow on 117 faces (37.6% area) of pressure-inlet 42.

 time step reduced in 142 cells due to excessive temperature change

 absolute pressure limited to 1.000000e+00 in 4 cells on zone 2297 

 temperature limited to 5.000000e+03 in 99 cells on zone 2297 
   119  1.3489e+00  6.6628e-01  2.2322e-01  2.2523e-01  1.3777e+00  0:21:35  381

 Reversed flow on 7704 faces (29.4% area) of pressure-outlet 46.

 Reversed flow on 138 faces (41.2% area) of pressure-inlet 42.

 time step reduced in 344 cells due to excessive temperature change

 absolute pressure limited to 1.000000e+00 in 9 cells on zone 2297 

 temperature limited to 5.000000e+03 in 115 cells on zone 2297 
   120  1.3557e+00  6.6752e-01  2.2126e-01  2.2313e-01  1.3833e+00  0:25:36  380

 Reversed flow on 7588 faces (28.9% area) of pressure-outlet 46.

 Reversed flow on 164 faces (45.7% area) of pressure-inlet 42.
Temperature limited to 1.000000e+00 in 372 cells during the last 11 iterations
Temperature limited to 5.000000e+03 in 1218 cells during the last 11 iterations
Absolute pressure limited to 1.000000e+00 in 576 cells during the last 11 iterations

 time step reduced in 35 cells due to excessive temperature change

 absolute pressure limited to 1.000000e+00 in 10 cells on zone 2297 

 temperature limited to 5.000000e+03 in 172 cells on zone 2297 
   121  1.3642e+00  6.7007e-01  2.1977e-01  2.2151e-01  1.3907e+00  0:25:51  379

 Reversed flow on 7441 faces (28.4% area) of pressure-outlet 46.

 Reversed flow on 188 faces (49.8% area) of pressure-inlet 42.

Divergence detected - temporarily reducing Courant number to 0.24056
 and trying again...

 absolute pressure limited to 1.000000e+00 in 4 cells on zone 2297 

 temperature limited to 5.000000e+03 in 205 cells on zone 2297 

  iter  continuity  x-velocity  y-velocity  z-velocity      energy     time/iter
   122  1.3726e+00  6.7297e-01  2.1917e-01  2.2070e-01  1.3976e+00  0:28:17  378

 Reversed flow on 7412 faces (28.3% area) of pressure-outlet 46.

 Reversed flow on 194 faces (50.7% area) of pressure-inlet 42.

 absolute pressure limited to 1.000000e+00 in 4 cells on zone 2297 

 temperature limited to 5.000000e+03 in 210 cells on zone 2297 
   123  1.3737e+00  6.7333e-01  2.1917e-01  2.2068e-01  1.3985e+00  0:26:33  377

 Reversed flow on 7388 faces (28.2% area) of pressure-outlet 46.

 Reversed flow on 194 faces (50.7% area) of pressure-inlet 42.

 time step reduced in 1 cells due to excessive temperature change

 absolute pressure limited to 1.000000e+00 in 4 cells on zone 2297 

 temperature limited to 5.000000e+03 in 211 cells on zone 2297 
   124  1.3749e+00  6.7372e-01  2.1917e-01  2.2066e-01  1.3995e+00  0:25:15  376

 Reversed flow on 7348 faces (28.0% area) of pressure-outlet 46.

 Reversed flow on 198 faces (51.4% area) of pressure-inlet 42.

 time step reduced in 1 cells due to excessive temperature change

 absolute pressure limited to 1.000000e+00 in 4 cells on zone 2297 

 temperature limited to 5.000000e+03 in 214 cells on zone 2297 
   125  1.3763e+00  6.7424e-01  2.1920e-01  2.2066e-01  1.4007e+00  0:24:01  375

 Reversed flow on 7309 faces (27.9% area) of pressure-outlet 46.

 Reversed flow on 199 faces (51.6% area) of pressure-inlet 42.

 time step reduced in 3 cells due to excessive temperature change

 absolute pressure limited to 1.000000e+00 in 5 cells on zone 2297 

 temperature limited to 5.000000e+03 in 211 cells on zone 2297 
   126  1.3776e+00  6.7476e-01  2.1924e-01  2.2068e-01  1.4018e+00  0:23:42  374

 Reversed flow on 7272 faces (27.7% area) of pressure-outlet 46.

 Reversed flow on 206 faces (52.7% area) of pressure-inlet 42.

 time step reduced in 16 cells due to excessive temperature change

 absolute pressure limited to 1.000000e+00 in 5 cells on zone 2297 

 temperature limited to 5.000000e+03 in 216 cells on zone 2297 
   127  1.3793e+00  6.7544e-01  2.1932e-01  2.2073e-01  1.4033e+00  0:22:34  373

 Reversed flow on 7199 faces (27.5% area) of pressure-outlet 46.

 Reversed flow on 212 faces (53.7% area) of pressure-inlet 42.

 time step reduced in 39 cells due to excessive temperature change

 absolute pressure limited to 1.000000e+00 in 6 cells on zone 2297 

 temperature limited to 5.000000e+03 in 198 cells on zone 2297 
   128  1.3814e+00  6.7656e-01  2.1954e-01  2.2096e-01  1.4053e+00  0:21:35  372

 Reversed flow on 7143 faces (27.3% area) of pressure-outlet 46.

 Reversed flow on 219 faces (54.8% area) of pressure-inlet 42.

 time step reduced in 82 cells due to excessive temperature change

 absolute pressure limited to 1.000000e+00 in 6 cells on zone 2297 

 temperature limited to 5.000000e+03 in 151 cells on zone 2297 
   129  1.3840e+00  6.7884e-01  2.2002e-01  2.2187e-01  1.4079e+00  0:20:45  371

 Reversed flow on 7052 faces (26.9% area) of pressure-outlet 46.

 Reversed flow on 227 faces (56.1% area) of pressure-inlet 42.

 time step reduced in 70 cells due to excessive temperature change

 absolute pressure limited to 1.000000e+00 in 17 cells on zone 2297 

 temperature limited to 5.000000e+03 in 153 cells on zone 2297 
   130  1.3871e+00  6.8003e-01  2.2040e-01  2.2219e-01  1.4104e+00  0:20:04  370

 Reversed flow on 6997 faces (26.7% area) of pressure-outlet 46.

 Reversed flow on 239 faces (58.0% area) of pressure-inlet 42.

 time step reduced in 69 cells due to excessive temperature change

 absolute pressure limited to 1.000000e+00 in 18 cells on zone 2297 

 temperature limited to 5.000000e+03 in 169 cells on zone 2297 
   131  1.3908e+00  6.8160e-01  2.2098e-01  2.2267e-01  1.4134e+00  0:19:25  369

 Reversed flow on 6920 faces (26.4% area) of pressure-outlet 46.

 Reversed flow on 250 faces (59.7% area) of pressure-inlet 42.

Divergence detected - temporarily reducing Courant number to 0.114708
 and trying again...
Temperature limited to 1.000000e+00 in 183 cells during the last 11 iterations
Temperature limited to 5.000000e+03 in 2231 cells during the last 11 iterations
Absolute pressure limited to 1.000000e+00 in 261 cells during the last 11 iterations

 absolute pressure limited to 1.000000e+00 in 11 cells on zone 2297 

 temperature limited to 5.000000e+03 in 139 cells on zone 2297 
   132  1.3950e+00  6.8352e-01  2.2188e-01  2.2345e-01  1.4168e+00  0:22:07  368

 Reversed flow on 6908 faces (26.4% area) of pressure-outlet 46.

 Reversed flow on 252 faces (60.0% area) of pressure-inlet 42.

 absolute pressure limited to 1.000000e+00 in 11 cells on zone 2297 

 temperature limited to 5.000000e+03 in 149 cells on zone 2297 

  iter  continuity  x-velocity  y-velocity  z-velocity      energy     time/iter
   133  1.3955e+00  6.8353e-01  2.2193e-01  2.2338e-01  1.4170e+00  0:21:00  367

 Reversed flow on 6900 faces (26.3% area) of pressure-outlet 46.

 Reversed flow on 253 faces (60.2% area) of pressure-inlet 42.

 absolute pressure limited to 1.000000e+00 in 11 cells on zone 2297 

 temperature limited to 5.000000e+03 in 160 cells on zone 2297 
   134  1.3960e+00  6.8376e-01  2.2205e-01  2.2349e-01  1.4174e+00  0:20:21  366

 Reversed flow on 6882 faces (26.3% area) of pressure-outlet 46.

 Reversed flow on 258 faces (61.0% area) of pressure-inlet 42.

 absolute pressure limited to 1.000000e+00 in 11 cells on zone 2297 

 temperature limited to 5.000000e+03 in 169 cells on zone 2297 
   135  1.3966e+00  6.8406e-01  2.2219e-01  2.2363e-01  1.4179e+00  0:20:06  365

 Reversed flow on 6873 faces (26.2% area) of pressure-outlet 46.

 Reversed flow on 258 faces (61.0% area) of pressure-inlet 42.

 absolute pressure limited to 1.000000e+00 in 11 cells on zone 2297 

 temperature limited to 5.000000e+03 in 173 cells on zone 2297 
   136  1.3971e+00  6.8435e-01  2.2235e-01  2.2378e-01  1.4184e+00  0:19:38  364

 Reversed flow on 6863 faces (26.2% area) of pressure-outlet 46.

 Reversed flow on 260 faces (61.3% area) of pressure-inlet 42.

 absolute pressure limited to 1.000000e+00 in 12 cells on zone 2297 

 temperature limited to 5.000000e+03 in 179 cells on zone 2297 
   137  1.3979e+00  6.8472e-01  2.2254e-01  2.2397e-01  1.4190e+00  0:19:16  363

 Reversed flow on 6855 faces (26.2% area) of pressure-outlet 46.

 Reversed flow on 261 faces (61.5% area) of pressure-inlet 42.

 absolute pressure limited to 1.000000e+00 in 12 cells on zone 2297 

 temperature limited to 5.000000e+03 in 188 cells on zone 2297 
   138  1.3987e+00  6.8519e-01  2.2279e-01  2.2421e-01  1.4197e+00  0:19:01  362

 Reversed flow on 6827 faces (26.1% area) of pressure-outlet 46.

 Reversed flow on 267 faces (62.4% area) of pressure-inlet 42.

 time step reduced in 1 cells due to excessive temperature change

 absolute pressure limited to 1.000000e+00 in 12 cells on zone 2297 

 temperature limited to 5.000000e+03 in 191 cells on zone 2297 
   139  1.3998e+00  6.8579e-01  2.2312e-01  2.2454e-01  1.4206e+00  0:18:52  361

 Reversed flow on 6805 faces (26.0% area) of pressure-outlet 46.

 Reversed flow on 272 faces (63.1% area) of pressure-inlet 42.

 time step reduced in 1 cells due to excessive temperature change

 absolute pressure limited to 1.000000e+00 in 12 cells on zone 2297 

 temperature limited to 5.000000e+03 in 191 cells on zone 2297 
   140  1.4009e+00  6.8639e-01  2.2345e-01  2.2487e-01  1.4215e+00  0:19:16  360

 Reversed flow on 6784 faces (25.9% area) of pressure-outlet 46.

 Reversed flow on 277 faces (63.8% area) of pressure-inlet 42.

 time step reduced in 4 cells due to excessive temperature change

 absolute pressure limited to 1.000000e+00 in 12 cells on zone 2297 

 temperature limited to 5.000000e+03 in 201 cells on zone 2297 
   141  1.4022e+00  6.8718e-01  2.2389e-01  2.2533e-01  1.4226e+00  0:19:41  359

 Reversed flow on 6754 faces (25.8% area) of pressure-outlet 46.

 Reversed flow on 278 faces (64.0% area) of pressure-inlet 42.

 time step reduced in 48 cells due to excessive temperature change

 absolute pressure limited to 1.000000e+00 in 12 cells on zone 2297 

 temperature limited to 5.000000e+03 in 196 cells on zone 2297 
   142  1.4037e+00  6.8831e-01  2.2450e-01  2.2601e-01  1.4239e+00  0:19:39  358

 Reversed flow on 6717 faces (25.6% area) of pressure-outlet 46.

 Reversed flow on 288 faces (65.5% area) of pressure-inlet 42.
Temperature limited to 1.000000e+00 in 71 cells during the last 11 iterations
Temperature limited to 5.000000e+03 in 2182 cells during the last 11 iterations
Absolute pressure limited to 1.000000e+00 in 202 cells during the last 11 iterations

 time step reduced in 47 cells due to excessive temperature change

 absolute pressure limited to 1.000000e+00 in 16 cells on zone 2297 

 temperature limited to 5.000000e+03 in 200 cells on zone 2297 
   143  1.4055e+00  6.8986e-01  2.2531e-01  2.2704e-01  1.4255e+00  0:21:10  357

 Reversed flow on 6674 faces (25.5% area) of pressure-outlet 46.

 Reversed flow on 293 faces (66.2% area) of pressure-inlet 42.

 time step reduced in 43 cells due to excessive temperature change

 absolute pressure limited to 1.000000e+00 in 16 cells on zone 2297 

 temperature limited to 5.000000e+03 in 265 cells on zone 2297 

  iter  continuity  x-velocity  y-velocity  z-velocity      energy     time/iter
   144  1.4077e+00  7.1133e-01  2.3165e-01  2.4156e-01  1.4547e+00  0:22:22  356

 Reversed flow on 6634 faces (25.3% area) of pressure-outlet 46.

 Reversed flow on 307 faces (68.2% area) of pressure-inlet 42.

 time step reduced in 122 cells due to excessive temperature change

 absolute pressure limited to 1.000000e+00 in 18 cells on zone 2297 

 temperature limited to 5.000000e+03 in 362 cells on zone 2297 
   145  1.4101e+00  7.9681e-01  2.6753e-01  3.1559e-01  1.8748e+00  0:24:32  355

 Reversed flow on 6566 faces (25.1% area) of pressure-outlet 46.

 Reversed flow on 319 faces (69.9% area) of pressure-inlet 42.

 time step reduced in 1002 cells due to excessive temperature change

 absolute pressure limited to 1.000000e+00 in 28 cells on zone 2297 

 temperature limited to 5.000000e+03 in 435 cells on zone 2297 
   146  1.4364e+00  7.2142e+01  1.5140e+01  2.7284e+01  2.2608e+02  0:24:33  354

 Reversed flow on 6487 faces (24.8% area) of pressure-outlet 46.

 Reversed flow on 337 faces (72.3% area) of pressure-inlet 42.

Divergence detected - temporarily reducing Courant number to 0.166922
 and trying again...

 time step reduced in 6 cells due to excessive temperature change

 absolute pressure limited to 1.000000e+00 in 14 cells on zone 2297 

 temperature limited to 5.000000e+03 in 505 cells on zone 2297 
   147  1.4387e+00  7.3121e+01  1.7500e+01  3.2915e+01  4.5302e+02  0:25:23  353

 Reversed flow on 6476 faces (24.7% area) of pressure-outlet 46.

 Reversed flow on 340 faces (72.7% area) of pressure-inlet 42.

 time step reduced in 9 cells due to excessive temperature change

 absolute pressure limited to 1.000000e+00 in 14 cells on zone 2297 

 temperature limited to 5.000000e+03 in 596 cells on zone 2297 
   148  1.4391e+00  7.3437e+01  2.0580e+01  3.7887e+01  6.0571e+02  0:23:35  352

 Reversed flow on 6468 faces (24.7% area) of pressure-outlet 46.

 Reversed flow on 340 faces (72.7% area) of pressure-inlet 42.

 time step reduced in 5 cells due to excessive temperature change

 absolute pressure limited to 1.000000e+00 in 13 cells on zone 2297 

 temperature limited to 5.000000e+03 in 623 cells on zone 2297 
   149  1.4420e+00  7.8686e+01  2.6887e+01  4.6028e+01  8.3426e+02  0:22:04  351

 Reversed flow on 6452 faces (24.6% area) of pressure-outlet 46.

 Reversed flow on 341 faces (72.9% area) of pressure-inlet 42.

 time step reduced in 8 cells due to excessive temperature change

 absolute pressure limited to 1.000000e+00 in 13 cells on zone 2297 

 temperature limited to 5.000000e+03 in 662 cells on zone 2297 
   150  1.4469e+00  8.8461e+01  3.9861e+01  6.2093e+01  1.2639e+03  0:20:50  350

 Reversed flow on 6436 faces (24.6% area) of pressure-outlet 46.

 Reversed flow on 345 faces (73.4% area) of pressure-inlet 42.

 time step reduced in 12 cells due to excessive temperature change

 absolute pressure limited to 1.000000e+00 in 13 cells on zone 2297 

 temperature limited to 5.000000e+03 in 707 cells on zone 2297 
   151  1.4574e+00  1.0884e+02  6.5575e+01  9.6185e+01  2.1144e+03  0:20:01  349

 Reversed flow on 6411 faces (24.5% area) of pressure-outlet 46.

 Reversed flow on 353 faces (74.4% area) of pressure-inlet 42.

 time step reduced in 15 cells due to excessive temperature change

 absolute pressure limited to 1.000000e+00 in 13 cells on zone 2297 

 temperature limited to 5.000000e+03 in 760 cells on zone 2297 
   152  1.4856e+00  1.5496e+02  1.1931e+02  1.7512e+02  4.0047e+03  0:20:21  348

 Reversed flow on 6373 faces (24.3% area) of pressure-outlet 46.

 Reversed flow on 360 faces (75.4% area) of pressure-inlet 42.

 time step reduced in 169 cells due to excessive temperature change

 absolute pressure limited to 1.000000e+00 in 13 cells on zone 2297 

 temperature limited to 5.000000e+03 in 798 cells on zone 2297 
   153  1.5748e+00  2.6438e+02  2.3221e+02  3.2285e+02  7.8292e+03  0:20:38  347

 Reversed flow on 6350 faces (24.2% area) of pressure-outlet 46.

 Reversed flow on 364 faces (75.9% area) of pressure-inlet 42.

Divergence detected - temporarily reducing Courant number to 0.0636756
 and trying again...
Temperature limited to 1.000000e+00 in 702 cells during the last 11 iterations
Temperature limited to 5.000000e+03 in 7528 cells during the last 11 iterations
Absolute pressure limited to 1.000000e+00 in 822 cells during the last 11 iterations

 time step reduced in 5 cells due to excessive temperature change

 absolute pressure limited to 1.000000e+00 in 13 cells on zone 2297 

 temperature limited to 5.000000e+03 in 663 cells on zone 2297 
   154  1.7847e+00  4.5634e+02  4.6927e+02  6.5855e+02  1.6605e+04  0:21:54  346

 Reversed flow on 6342 faces (24.2% area) of pressure-outlet 46.

 Reversed flow on 364 faces (75.9% area) of pressure-inlet 42.

 time step reduced in 7 cells due to excessive temperature change

 absolute pressure limited to 1.000000e+00 in 13 cells on zone 2297 

 temperature limited to 5.000000e+03 in 670 cells on zone 2297 

  iter  continuity  x-velocity  y-velocity  z-velocity      energy     time/iter
   155  2.0265e+00  5.9861e+02  7.9650e+02  1.1573e+03  2.7981e+04  0:20:53  345

 Reversed flow on 6343 faces (24.2% area) of pressure-outlet 46.

 Reversed flow on 366 faces (76.2% area) of pressure-inlet 42.

 time step reduced in 8 cells due to excessive temperature change

 absolute pressure limited to 1.000000e+00 in 13 cells on zone 2297 

 temperature limited to 5.000000e+03 in 678 cells on zone 2297 
   156  2.4796e+00  8.5726e+02  1.4817e+03  2.2580e+03  5.1928e+04  0:20:11  344

 Reversed flow on 6341 faces (24.2% area) of pressure-outlet 46.

 Reversed flow on 367 faces (76.3% area) of pressure-inlet 42.

 time step reduced in 9 cells due to excessive temperature change

 absolute pressure limited to 1.000000e+00 in 13 cells on zone 2297 

 temperature limited to 5.000000e+03 in 690 cells on zone 2297 
   157  3.4817e+00  1.4578e+03  3.0763e+03  4.8579e+03  1.0789e+05  0:20:00  343

 Reversed flow on 6331 faces (24.2% area) of pressure-outlet 46.

 Reversed flow on 367 faces (76.3% area) of pressure-inlet 42.

 time step reduced in 13 cells due to excessive temperature change

 absolute pressure limited to 1.000000e+00 in 14 cells on zone 2297 

 temperature limited to 5.000000e+03 in 709 cells on zone 2297 
   158  5.9323e+00  2.9143e+03  6.8337e+03  1.1028e+04  2.4033e+05  0:20:05  342

 Reversed flow on 6327 faces (24.2% area) of pressure-outlet 46.

 Reversed flow on 367 faces (76.3% area) of pressure-inlet 42.

 time step reduced in 20 cells due to excessive temperature change

 absolute pressure limited to 1.000000e+00 in 13 cells on zone 2297 

 temperature limited to 5.000000e+03 in 724 cells on zone 2297 
   159  1.2473e+01  6.5524e+03  1.6049e+04  2.6223e+04  5.6621e+05  0:19:57  341

 Reversed flow on 6322 faces (24.1% area) of pressure-outlet 46.

 Reversed flow on 370 faces (76.6% area) of pressure-inlet 42.

 time step reduced in 31 cells due to excessive temperature change

 absolute pressure limited to 1.000000e+00 in 14 cells on zone 2297 

 temperature limited to 5.000000e+03 in 753 cells on zone 2297 
   160  3.0651e+01  1.6013e+04  3.9828e+04  6.5540e+04  1.4090e+06  0:19:35  340

 Reversed flow on 6315 faces (24.1% area) of pressure-outlet 46.

 Reversed flow on 372 faces (76.9% area) of pressure-inlet 42.

 time step reduced in 92 cells due to excessive temperature change

 absolute pressure limited to 1.000000e+00 in 14 cells on zone 2297 

 temperature limited to 5.000000e+03 in 759 cells on zone 2297 
   161  8.2667e+01  4.1785e+04  1.0443e+05  1.7251e+05  3.7020e+06  0:20:34  339

 Reversed flow on 6306 faces (24.1% area) of pressure-outlet 46.

 Reversed flow on 375 faces (77.3% area) of pressure-inlet 42.

 time step reduced in 177 cells due to excessive temperature change

 absolute pressure limited to 1.000000e+00 in 15 cells on zone 2297 

 temperature limited to 5.000000e+03 in 750 cells on zone 2297 
   162  2.3975e+02  1.1637e+05  2.9126e+05  4.8209e+05  1.0341e+07  0:26:15  338

 Reversed flow on 6268 faces (23.9% area) of pressure-outlet 46.

 Reversed flow on 383 faces (78.2% area) of pressure-inlet 42.

 time step reduced in 65 cells due to excessive temperature change

 absolute pressure limited to 1.000000e+00 in 22 cells on zone 2297 

 absolute pressure limited to 5.000000e+10 in 1 cells on zone 2297 

 temperature limited to 5.000000e+03 in 799 cells on zone 2297 
   163  5.4411e+02  2.5284e+05  6.3331e+05  1.0483e+06  2.2474e+07  0:25:39  337

 Reversed flow on 6237 faces (23.8% area) of pressure-outlet 46.

 Reversed flow on 389 faces (79.0% area) of pressure-inlet 42.

 time step reduced in 101 cells due to excessive temperature change

 absolute pressure limited to 1.000000e+00 in 18 cells on zone 2297 

 absolute pressure limited to 5.000000e+10 in 1 cells on zone 2297 

 temperature limited to 5.000000e+03 in 910 cells on zone 2297 
   164  5.9948e+02  2.5595e+05  6.4413e+05  1.0615e+06  2.2735e+07  0:25:08  336

 Reversed flow on 6208 faces (23.7% area) of pressure-outlet 46.

 Reversed flow on 394 faces (79.6% area) of pressure-inlet 42.
Temperature limited to 1.000000e+00 in 412 cells during the last 11 iterations
Temperature limited to 5.000000e+03 in 9340 cells during the last 11 iterations
Absolute pressure limited to 1.000000e+00 in 494 cells during the last 11 iterations
Absolute pressure limited to 5.000000e+10 in 6 cells during the last 11 iterations

 time step reduced in 157 cells due to excessive temperature change

 absolute pressure limited to 1.000000e+00 in 18 cells on zone 2297 

 absolute pressure limited to 5.000000e+10 in 2 cells on zone 2297 

 temperature limited to 5.000000e+03 in 1006 cells on zone 2297 
   165  7.0151e+02  2.6071e+05  6.5387e+05  1.0736e+06  2.3043e+07  0:24:41  335

 Reversed flow on 6158 faces (23.5% area) of pressure-outlet 46.

 Reversed flow on 398 faces (80.0% area) of pressure-inlet 42.

 time step reduced in 290 cells due to excessive temperature change

 absolute pressure limited to 1.000000e+00 in 15 cells on zone 2297 

 absolute pressure limited to 5.000000e+10 in 2 cells on zone 2297 

 temperature limited to 5.000000e+03 in 1391 cells on zone 2297 

  iter  continuity  x-velocity  y-velocity  z-velocity      energy     time/iter
   166  8.8281e+02  2.7204e+05  6.6190e+05  1.0846e+06  2.3566e+07  0:24:27  334

 Reversed flow on 6027 faces (23.0% area) of pressure-outlet 46.

 Reversed flow on 411 faces (81.5% area) of pressure-inlet 42.

Divergence detected - temporarily reducing Courant number to 0.0926602
 and trying again...

 time step reduced in 33 cells due to excessive temperature change

 absolute pressure limited to 1.000000e+00 in 13 cells on zone 2297 

 absolute pressure limited to 5.000000e+10 in 2 cells on zone 2297 

 temperature limited to 5.000000e+03 in 1820 cells on zone 2297 
   167  1.6245e+03  3.1265e+05  7.0165e+05  1.1426e+06  2.6515e+07  0:31:03  333

 Reversed flow on 6022 faces (23.0% area) of pressure-outlet 46.

 Reversed flow on 411 faces (81.5% area) of pressure-inlet 42.

 time step reduced in 43 cells due to excessive temperature change

 absolute pressure limited to 1.000000e+00 in 13 cells on zone 2297 

 absolute pressure limited to 5.000000e+10 in 2 cells on zone 2297 

 temperature limited to 5.000000e+03 in 2105 cells on zone 2297 
   168  2.1940e+03  3.5832e+05  7.6395e+05  1.2288e+06  3.0002e+07  0:28:05  332

 Reversed flow on 6019 faces (23.0% area) of pressure-outlet 46.

 Reversed flow on 413 faces (81.8% area) of pressure-inlet 42.

 time step reduced in 50 cells due to excessive temperature change

 absolute pressure limited to 1.000000e+00 in 13 cells on zone 2297 

 absolute pressure limited to 5.000000e+10 in 3 cells on zone 2297 

 temperature limited to 5.000000e+03 in 2222 cells on zone 2297 
   169  2.3364e+03  4.1872e+05  8.4969e+05  1.3312e+06  3.2324e+07  0:25:46  331

 Reversed flow on 5997 faces (22.9% area) of pressure-outlet 46.

 Reversed flow on 415 faces (82.0% area) of pressure-inlet 42.

 time step reduced in 62 cells due to excessive temperature change

 absolute pressure limited to 1.000000e+00 in 13 cells on zone 2297 

 absolute pressure limited to 5.000000e+10 in 3 cells on zone 2297 

 temperature limited to 5.000000e+03 in 2349 cells on zone 2297 
   170  2.5701e+03  5.2676e+05  1.0182e+06  1.5323e+06  3.6365e+07  0:24:24  330

 Reversed flow on 5974 faces (22.8% area) of pressure-outlet 46.

 Reversed flow on 417 faces (82.2% area) of pressure-inlet 42.

 time step reduced in 78 cells due to excessive temperature change

 absolute pressure limited to 1.000000e+00 in 13 cells on zone 2297 

 absolute pressure limited to 5.000000e+10 in 3 cells on zone 2297 

 temperature limited to 5.000000e+03 in 2474 cells on zone 2297 
   171  3.1317e+03  7.1616e+05  1.3134e+06  1.8920e+06  4.3714e+07  0:24:12  329

 Reversed flow on 5938 faces (22.7% area) of pressure-outlet 46.

 Reversed flow on 420 faces (82.6% area) of pressure-inlet 42.

 time step reduced in 103 cells due to excessive temperature change

 absolute pressure limited to 1.000000e+00 in 13 cells on zone 2297 

 absolute pressure limited to 5.000000e+10 in 4 cells on zone 2297 

 temperature limited to 5.000000e+03 in 2588 cells on zone 2297 
   172  4.1625e+03  1.0379e+06  1.7693e+06  2.4521e+06  5.5518e+07  0:24:02  328

 Reversed flow on 5909 faces (22.6% area) of pressure-outlet 46.

 Reversed flow on 423 faces (82.9% area) of pressure-inlet 42.

 time step reduced in 138 cells due to excessive temperature change

 absolute pressure limited to 1.000000e+00 in 13 cells on zone 2297 

 absolute pressure limited to 5.000000e+10 in 5 cells on zone 2297 

 temperature limited to 5.000000e+03 in 2732 cells on zone 2297 
   173  5.8084e+03  1.5891e+06  2.4314e+06  3.2566e+06  7.3175e+07  0:23:16  327

 Reversed flow on 5868 faces (22.4% area) of pressure-outlet 46.

 Reversed flow on 424 faces (83.0% area) of pressure-inlet 42.

 time step reduced in 147 cells due to excessive temperature change

 absolute pressure limited to 1.000000e+00 in 14 cells on zone 2297 

 absolute pressure limited to 5.000000e+10 in 8 cells on zone 2297 

 temperature limited to 5.000000e+03 in 2942 cells on zone 2297 
   174  8.1351e+03  2.4670e+06  3.3485e+06  4.3546e+06  9.8466e+07  0:23:04  326

 Reversed flow on 5831 faces (22.3% area) of pressure-outlet 46.

 Reversed flow on 426 faces (83.2% area) of pressure-inlet 42.

Divergence detected - temporarily reducing Courant number to 0.0441838
 and trying again...

 time step reduced in 56 cells due to excessive temperature change

 absolute pressure limited to 1.000000e+00 in 15 cells on zone 2297 

 absolute pressure limited to 5.000000e+10 in 13 cells on zone 2297 

 temperature limited to 5.000000e+03 in 2750 cells on zone 2297 
   175  1.1044e+04  3.6378e+06  4.3673e+06  5.4627e+06  1.2477e+08  0:30:30  325

 Reversed flow on 5835 faces (22.3% area) of pressure-outlet 46.

 Reversed flow on 427 faces (83.4% area) of pressure-inlet 42.
Temperature limited to 1.000000e+00 in 558 cells during the last 11 iterations
Temperature limited to 5.000000e+03 in 28984 cells during the last 11 iterations
Absolute pressure limited to 1.000000e+00 in 437 cells during the last 11 iterations
Absolute pressure limited to 5.000000e+10 in 71 cells during the last 11 iterations

 time step reduced in 58 cells due to excessive temperature change

 absolute pressure limited to 1.000000e+00 in 15 cells on zone 2297 

 absolute pressure limited to 5.000000e+10 in 15 cells on zone 2297 

 temperature limited to 5.000000e+03 in 2762 cells on zone 2297 
   176  1.1914e+04  4.0295e+06  4.6509e+06  5.7406e+06  1.3186e+08  0:28:58  324

 Reversed flow on 5832 faces (22.3% area) of pressure-outlet 46.

 Reversed flow on 427 faces (83.4% area) of pressure-inlet 42.

 time step reduced in 60 cells due to excessive temperature change

 absolute pressure limited to 1.000000e+00 in 15 cells on zone 2297 

 absolute pressure limited to 5.000000e+10 in 15 cells on zone 2297 

 temperature limited to 5.000000e+03 in 2768 cells on zone 2297 

  iter  continuity  x-velocity  y-velocity  z-velocity      energy     time/iter
   177  1.2756e+04  4.4140e+06  4.9227e+06  5.9988e+06  1.3862e+08  0:27:46  323

 Reversed flow on 5829 faces (22.3% area) of pressure-outlet 46.

 Reversed flow on 427 faces (83.4% area) of pressure-inlet 42.

 time step reduced in 71 cells due to excessive temperature change

 absolute pressure limited to 1.000000e+00 in 16 cells on zone 2297 

 absolute pressure limited to 5.000000e+10 in 17 cells on zone 2297 

 temperature limited to 5.000000e+03 in 2779 cells on zone 2297 
   178  1.3617e+04  4.7861e+06  5.2141e+06  6.2757e+06  1.4573e+08  0:26:48  322

 Reversed flow on 5825 faces (22.3% area) of pressure-outlet 46.

 Reversed flow on 428 faces (83.5% area) of pressure-inlet 42.

 time step reduced in 78 cells due to excessive temperature change

 absolute pressure limited to 1.000000e+00 in 16 cells on zone 2297 

 absolute pressure limited to 5.000000e+10 in 19 cells on zone 2297 

 temperature limited to 5.000000e+03 in 2813 cells on zone 2297 
   179  1.4309e+04  5.1099e+06  5.4542e+06  6.4738e+06  1.5117e+08  0:25:52  321

 Reversed flow on 5828 faces (22.3% area) of pressure-outlet 46.

 Reversed flow on 431 faces (83.8% area) of pressure-inlet 42.

 time step reduced in 113 cells due to excessive temperature change

 absolute pressure limited to 1.000000e+00 in 17 cells on zone 2297 

 absolute pressure limited to 5.000000e+10 in 19 cells on zone 2297 

 temperature limited to 5.000000e+03 in 2782 cells on zone 2297 
[...]

 time step reduced in 264 cells due to excessive temperature change

 absolute pressure limited to 1.000000e+00 in 268 cells on zone 2297 

 absolute pressure limited to 5.000000e+10 in 1039 cells on zone 2297 

 temperature limited to 1.000000e+00 in 152 cells on zone 2297 

 temperature limited to 5.000000e+03 in 9770 cells on zone 2297 
   307  1.4124e+06  1.2358e+10  1.9985e+10  2.9938e+10  2.7235e+13  0:16:41  193

 Reversed flow on 5006 faces (19.0% area) of pressure-outlet 46.

 Reversed flow on 564 faces (96.4% area) of pressure-inlet 42.
Temperature limited to 1.000000e+00 in 3795 cells during the last 11 iterations
Temperature limited to 5.000000e+03 in 108077 cells during the last 11 iterations
Absolute pressure limited to 1.000000e+00 in 3798 cells during the last 11 iterations
Absolute pressure limited to 5.000000e+10 in 11405 cells during the last 11 iterations

 time step reduced in 291 cells due to excessive temperature change

 absolute pressure limited to 1.000000e+00 in 277 cells on zone 2297 

 absolute pressure limited to 5.000000e+10 in 1042 cells on zone 2297 

 temperature limited to 1.000000e+00 in 154 cells on zone 2297 

 temperature limited to 5.000000e+03 in 9785 cells on zone 2297 
   308  1.4133e+06  1.2358e+10  1.9985e+10  2.9938e+10  2.7235e+13  0:16:28  192

 Reversed flow on 5005 faces (19.0% area) of pressure-outlet 46.

 Reversed flow on 564 faces (96.4% area) of pressure-inlet 42.

 time step reduced in 303 cells due to excessive temperature change

 absolute pressure limited to 1.000000e+00 in 277 cells on zone 2297 

 absolute pressure limited to 5.000000e+10 in 1044 cells on zone 2297 

 temperature limited to 1.000000e+00 in 155 cells on zone 2297 

 temperature limited to 5.000000e+03 in 9814 cells on zone 2297 

  iter  continuity  x-velocity  y-velocity  z-velocity      energy     time/iter
   309  1.4126e+06  1.2358e+10  1.9985e+10  2.9937e+10  2.7235e+13  0:16:04  191

 Reversed flow on 4999 faces (19.0% area) of pressure-outlet 46.

 Reversed flow on 564 faces (96.4% area) of pressure-inlet 42.

 time step reduced in 309 cells due to excessive temperature change

 absolute pressure limited to 1.000000e+00 in 288 cells on zone 2297 

 absolute pressure limited to 5.000000e+10 in 1050 cells on zone 2297 

 temperature limited to 1.000000e+00 in 155 cells on zone 2297 

 temperature limited to 5.000000e+03 in 9870 cells on zone 2297 
   310  1.4124e+06  1.2358e+10  1.9985e+10  2.9937e+10  2.7235e+13  0:15:47  190

 Reversed flow on 5001 faces (19.0% area) of pressure-outlet 46.

 Reversed flow on 564 faces (96.4% area) of pressure-inlet 42.

 time step reduced in 395 cells due to excessive temperature change

 absolute pressure limited to 1.000000e+00 in 268 cells on zone 2297 

 absolute pressure limited to 5.000000e+10 in 1057 cells on zone 2297 

 temperature limited to 1.000000e+00 in 162 cells on zone 2297 

 temperature limited to 5.000000e+03 in 9789 cells on zone 2297 
   311  1.4125e+06  1.2358e+10  1.9985e+10  2.9937e+10  2.7235e+13  0:16:28  189

 Reversed flow on 4998 faces (19.0% area) of pressure-outlet 46.

 Reversed flow on 565 faces (96.5% area) of pressure-inlet 42.

Divergence detected - temporarily reducing Courant number to 0.0049318
 and trying again...

 time step reduced in 204 cells due to excessive temperature change

 absolute pressure limited to 1.000000e+00 in 263 cells on zone 2297 

 absolute pressure limited to 5.000000e+10 in 1030 cells on zone 2297 

 temperature limited to 1.000000e+00 in 159 cells on zone 2297 

 temperature limited to 5.000000e+03 in 9574 cells on zone 2297 
   312  1.4131e+06  1.2358e+10  1.9985e+10  2.9937e+10  2.7235e+13  0:17:25  188

 Reversed flow on 4998 faces (19.0% area) of pressure-outlet 46.

 Reversed flow on 565 faces (96.5% area) of pressure-inlet 42.

 time step reduced in 208 cells due to excessive temperature change

 absolute pressure limited to 1.000000e+00 in 268 cells on zone 2297 

 absolute pressure limited to 5.000000e+10 in 1034 cells on zone 2297 

 temperature limited to 1.000000e+00 in 160 cells on zone 2297 

 temperature limited to 5.000000e+03 in 9589 cells on zone 2297 
   313  1.4199e+06  1.2358e+10  1.9985e+10  2.9937e+10  2.7235e+13  0:16:12  187

 Reversed flow on 4996 faces (19.0% area) of pressure-outlet 46.

 Reversed flow on 565 faces (96.5% area) of pressure-inlet 42.

 time step reduced in 224 cells due to excessive temperature change

 absolute pressure limited to 1.000000e+00 in 270 cells on zone 2297 

 absolute pressure limited to 5.000000e+10 in 1035 cells on zone 2297 

 temperature limited to 1.000000e+00 in 163 cells on zone 2297 

 temperature limited to 5.000000e+03 in 9601 cells on zone 2297 
   314  1.4124e+06  1.2358e+10  1.9985e+10  2.9937e+10  2.7235e+13  0:15:18  186

 Reversed flow on 4995 faces (19.0% area) of pressure-outlet 46.

 Reversed flow on 565 faces (96.5% area) of pressure-inlet 42.

 time step reduced in 239 cells due to excessive temperature change

 absolute pressure limited to 1.000000e+00 in 274 cells on zone 2297 

 absolute pressure limited to 5.000000e+10 in 1035 cells on zone 2297 

 temperature limited to 1.000000e+00 in 165 cells on zone 2297 

 temperature limited to 5.000000e+03 in 9632 cells on zone 2297 
   315  1.4124e+06  1.2358e+10  1.9985e+10  2.9937e+10  2.7235e+13  0:14:32  185

 Reversed flow on 4994 faces (19.0% area) of pressure-outlet 46.

 Reversed flow on 566 faces (96.5% area) of pressure-inlet 42.

 time step reduced in 253 cells due to excessive temperature change

 absolute pressure limited to 1.000000e+00 in 275 cells on zone 2297 

 absolute pressure limited to 5.000000e+10 in 1038 cells on zone 2297 

 temperature limited to 1.000000e+00 in 174 cells on zone 2297 

 temperature limited to 5.000000e+03 in 9647 cells on zone 2297 
   316  1.4124e+06  1.2358e+10  1.9985e+10  2.9937e+10  2.7235e+13  0:14:17  184

 Reversed flow on 4993 faces (19.0% area) of pressure-outlet 46.

 Reversed flow on 566 faces (96.5% area) of pressure-inlet 42.

 time step reduced in 256 cells due to excessive temperature change

 absolute pressure limited to 1.000000e+00 in 281 cells on zone 2297 

 absolute pressure limited to 5.000000e+10 in 1042 cells on zone 2297 

 temperature limited to 1.000000e+00 in 175 cells on zone 2297 

 temperature limited to 5.000000e+03 in 9678 cells on zone 2297 
   317  1.4126e+06  1.2358e+10  1.9990e+10  2.9949e+10  2.7237e+13  0:14:49  183

 Reversed flow on 4993 faces (19.0% area) of pressure-outlet 46.

 Reversed flow on 567 faces (96.6% area) of pressure-inlet 42.

 time step reduced in 272 cells due to excessive temperature change

 absolute pressure limited to 1.000000e+00 in 289 cells on zone 2297 

 absolute pressure limited to 5.000000e+10 in 1050 cells on zone 2297 

 temperature limited to 1.000000e+00 in 175 cells on zone 2297 

 temperature limited to 5.000000e+03 in 9709 cells on zone 2297 
   318  1.4145e+06  1.2358e+10  1.9998e+10  2.9964e+10  2.7240e+13  0:15:13  182

 Reversed flow on 4993 faces (19.0% area) of pressure-outlet 46.

 Reversed flow on 567 faces (96.6% area) of pressure-inlet 42.
Temperature limited to 1.000000e+00 in 4061 cells during the last 11 iterations
Temperature limited to 5.000000e+03 in 107530 cells during the last 11 iterations
Absolute pressure limited to 1.000000e+00 in 4121 cells during the last 11 iterations
Absolute pressure limited to 5.000000e+10 in 11530 cells during the last 11 iterations

 time step reduced in 290 cells due to excessive temperature change

 absolute pressure limited to 1.000000e+00 in 294 cells on zone 2297 

 absolute pressure limited to 5.000000e+10 in 1057 cells on zone 2297 

 temperature limited to 1.000000e+00 in 184 cells on zone 2297 

 temperature limited to 5.000000e+03 in 9745 cells on zone 2297 
   319  1.4157e+06  1.2358e+10  1.9998e+10  2.9964e+10  2.7240e+13  0:15:06  181

 Reversed flow on 4998 faces (19.0% area) of pressure-outlet 46.

 Reversed flow on 567 faces (96.6% area) of pressure-inlet 42.

 time step reduced in 299 cells due to excessive temperature change

 absolute pressure limited to 1.000000e+00 in 301 cells on zone 2297 

 absolute pressure limited to 5.000000e+10 in 1060 cells on zone 2297 

 temperature limited to 1.000000e+00 in 189 cells on zone 2297 

 temperature limited to 5.000000e+03 in 9773 cells on zone 2297 

  iter  continuity  x-velocity  y-velocity  z-velocity      energy     time/iter
   320  1.4142e+06  1.2358e+10  1.9993e+10  2.9955e+10  2.7238e+13  0:14:34  180

 Reversed flow on 5000 faces (19.0% area) of pressure-outlet 46.

 Reversed flow on 567 faces (96.6% area) of pressure-inlet 42.

Divergence detected - temporarily reducing Courant number to 0.00293958
 and trying again...

 time step reduced in 204 cells due to excessive temperature change

 absolute pressure limited to 1.000000e+00 in 290 cells on zone 2297 

 absolute pressure limited to 5.000000e+10 in 1041 cells on zone 2297 

 temperature limited to 1.000000e+00 in 188 cells on zone 2297 

 temperature limited to 5.000000e+03 in 9602 cells on zone 2297 
   321  1.4133e+06  1.2358e+10  1.9993e+10  2.9954e+10  2.7238e+13  0:15:48  179

 Reversed flow on 5000 faces (19.0% area) of pressure-outlet 46.

 Reversed flow on 567 faces (96.6% area) of pressure-inlet 42.

 time step reduced in 204 cells due to excessive temperature change

 absolute pressure limited to 1.000000e+00 in 290 cells on zone 2297 

 absolute pressure limited to 5.000000e+10 in 1041 cells on zone 2297 

 temperature limited to 1.000000e+00 in 189 cells on zone 2297 

 temperature limited to 5.000000e+03 in 9601 cells on zone 2297 
   322  1.4133e+06  1.2358e+10  1.9993e+10  2.9954e+10  2.7238e+13  0:15:25  178

 Reversed flow on 5000 faces (19.0% area) of pressure-outlet 46.

 Reversed flow on 567 faces (96.6% area) of pressure-inlet 42.

 time step reduced in 210 cells due to excessive temperature change

 absolute pressure limited to 1.000000e+00 in 293 cells on zone 2297 

 absolute pressure limited to 5.000000e+10 in 1041 cells on zone 2297 

 temperature limited to 1.000000e+00 in 190 cells on zone 2297 

 temperature limited to 5.000000e+03 in 9605 cells on zone 2297 
   323  1.4134e+06  1.2358e+10  1.9993e+10  2.9954e+10  2.7238e+13  0:15:09  177

 Reversed flow on 5000 faces (19.0% area) of pressure-outlet 46.

 Reversed flow on 567 faces (96.6% area) of pressure-inlet 42.

 time step reduced in 216 cells due to excessive temperature change

 absolute pressure limited to 1.000000e+00 in 301 cells on zone 2297 

 absolute pressure limited to 5.000000e+10 in 1042 cells on zone 2297 

 temperature limited to 1.000000e+00 in 192 cells on zone 2297 

 temperature limited to 5.000000e+03 in 9618 cells on zone 2297 
   324  1.4134e+06  1.2358e+10  1.9993e+10  2.9954e+10  2.7238e+13  0:14:42  176

 Reversed flow on 5000 faces (19.0% area) of pressure-outlet 46.

 Reversed flow on 567 faces (96.6% area) of pressure-inlet 42.

 time step reduced in 224 cells due to excessive temperature change

 absolute pressure limited to 1.000000e+00 in 299 cells on zone 2297 

 absolute pressure limited to 5.000000e+10 in 1043 cells on zone 2297 

 temperature limited to 1.000000e+00 in 195 cells on zone 2297 

 temperature limited to 5.000000e+03 in 9635 cells on zone 2297 
   325  1.4134e+06  1.2358e+10  1.9993e+10  2.9954e+10  2.7238e+13  0:14:33  175

 Reversed flow on 5001 faces (19.0% area) of pressure-outlet 46.

 Reversed flow on 567 faces (96.6% area) of pressure-inlet 42.

 time step reduced in 232 cells due to excessive temperature change

 absolute pressure limited to 1.000000e+00 in 306 cells on zone 2297 

 absolute pressure limited to 5.000000e+10 in 1044 cells on zone 2297 

 temperature limited to 1.000000e+00 in 196 cells on zone 2297 

 temperature limited to 5.000000e+03 in 9650 cells on zone 2297 
   326  1.4135e+06  1.2358e+10  1.9993e+10  2.9954e+10  2.7238e+13  0:14:04  174

 Reversed flow on 5001 faces (19.0% area) of pressure-outlet 46.

 Reversed flow on 567 faces (96.6% area) of pressure-inlet 42.

 time step reduced in 246 cells due to excessive temperature change

 absolute pressure limited to 1.000000e+00 in 315 cells on zone 2297 

 absolute pressure limited to 5.000000e+10 in 1044 cells on zone 2297 

 temperature limited to 1.000000e+00 in 202 cells on zone 2297 

 temperature limited to 5.000000e+03 in 9674 cells on zone 2297 
   327  1.4139e+06  1.2358e+10  1.9993e+10  2.9954e+10  2.7238e+13  0:13:51  173

 Reversed flow on 4998 faces (19.0% area) of pressure-outlet 46.

 Reversed flow on 567 faces (96.6% area) of pressure-inlet 42.

 time step reduced in 253 cells due to excessive temperature change

 absolute pressure limited to 1.000000e+00 in 318 cells on zone 2297 

 absolute pressure limited to 5.000000e+10 in 1046 cells on zone 2297 

 temperature limited to 1.000000e+00 in 202 cells on zone 2297 

 temperature limited to 5.000000e+03 in 9704 cells on zone 2297 
   328  1.4175e+06  1.2357e+10  1.9993e+10  2.9955e+10  2.7238e+13  0:13:45  172

 Reversed flow on 4999 faces (19.0% area) of pressure-outlet 46.

 Reversed flow on 567 faces (96.6% area) of pressure-inlet 42.

 time step reduced in 269 cells due to excessive temperature change

 absolute pressure limited to 1.000000e+00 in 324 cells on zone 2297 

 absolute pressure limited to 5.000000e+10 in 1053 cells on zone 2297 

 temperature limited to 1.000000e+00 in 233 cells on zone 2297 

 temperature limited to 5.000000e+03 in 9744 cells on zone 2297 
   329  1.4133e+06  1.2357e+10  1.9993e+10  2.9955e+10  2.7238e+13  0:13:18  171

 Reversed flow on 5001 faces (19.0% area) of pressure-outlet 46.

 Reversed flow on 568 faces (96.7% area) of pressure-inlet 42.
Temperature limited to 1.000000e+00 in 4253 cells during the last 11 iterations
Temperature limited to 5.000000e+03 in 106951 cells during the last 11 iterations
Absolute pressure limited to 1.000000e+00 in 4443 cells during the last 11 iterations
Absolute pressure limited to 5.000000e+10 in 11546 cells during the last 11 iterations

 time step reduced in 277 cells due to excessive temperature change

 absolute pressure limited to 1.000000e+00 in 325 cells on zone 2297 

 absolute pressure limited to 5.000000e+10 in 1058 cells on zone 2297 

 temperature limited to 1.000000e+00 in 239 cells on zone 2297 

 temperature limited to 5.000000e+03 in 9780 cells on zone 2297 
   330  1.4133e+06  1.2357e+10  1.9992e+10  2.9954e+10  2.7238e+13  0:12:46  170

 Reversed flow on 5002 faces (19.0% area) of pressure-outlet 46.

 Reversed flow on 568 faces (96.7% area) of pressure-inlet 42.

Divergence detected - temporarily reducing Courant number to 0.00219016
 and trying again...

 time step reduced in 201 cells due to excessive temperature change

 absolute pressure limited to 1.000000e+00 in 320 cells on zone 2297 

 absolute pressure limited to 5.000000e+10 in 1042 cells on zone 2297 

 temperature limited to 1.000000e+00 in 238 cells on zone 2297 

 temperature limited to 5.000000e+03 in 9624 cells on zone 2297 

  iter  continuity  x-velocity  y-velocity  z-velocity      energy     time/iter
   331  1.4133e+06  1.2357e+10  1.9992e+10  2.9954e+10  2.7238e+13  0:16:35  169

 Reversed flow on 5002 faces (19.0% area) of pressure-outlet 46.

 Reversed flow on 568 faces (96.7% area) of pressure-inlet 42.

 time step reduced in 199 cells due to excessive temperature change

 absolute pressure limited to 1.000000e+00 in 324 cells on zone 2297 

 absolute pressure limited to 5.000000e+10 in 1042 cells on zone 2297 

 temperature limited to 1.000000e+00 in 240 cells on zone 2297 

 temperature limited to 5.000000e+03 in 9630 cells on zone 2297 
   332  1.4134e+06  1.2357e+10  1.9992e+10  2.9954e+10  2.7238e+13  0:16:07  168

 Reversed flow on 5002 faces (19.0% area) of pressure-outlet 46.

 Reversed flow on 568 faces (96.7% area) of pressure-inlet 42.

 time step reduced in 199 cells due to excessive temperature change

 absolute pressure limited to 1.000000e+00 in 324 cells on zone 2297 

 absolute pressure limited to 5.000000e+10 in 1041 cells on zone 2297 

 temperature limited to 1.000000e+00 in 240 cells on zone 2297 

 temperature limited to 5.000000e+03 in 9639 cells on zone 2297 
   333  1.4136e+06  1.2357e+10  1.9992e+10  2.9954e+10  2.7238e+13  0:15:13  167

 Reversed flow on 5002 faces (19.0% area) of pressure-outlet 46.

 Reversed flow on 568 faces (96.7% area) of pressure-inlet 42.

 time step reduced in 202 cells due to excessive temperature change

 absolute pressure limited to 1.000000e+00 in 327 cells on zone 2297 

 absolute pressure limited to 5.000000e+10 in 1041 cells on zone 2297 

 temperature limited to 1.000000e+00 in 243 cells on zone 2297 

 temperature limited to 5.000000e+03 in 9648 cells on zone 2297 
   334  1.4138e+06  1.2357e+10  1.9992e+10  2.9955e+10  2.7238e+13  0:14:38  166

 Reversed flow on 5002 faces (19.0% area) of pressure-outlet 46.

 Reversed flow on 568 faces (96.7% area) of pressure-inlet 42.

 time step reduced in 208 cells due to excessive temperature change

 absolute pressure limited to 1.000000e+00 in 331 cells on zone 2297 

 absolute pressure limited to 5.000000e+10 in 1041 cells on zone 2297 

 temperature limited to 1.000000e+00 in 247 cells on zone 2297 

 temperature limited to 5.000000e+03 in 9654 cells on zone 2297 
   335  1.4143e+06  1.2357e+10  1.9992e+10  2.9955e+10  2.7238e+13  0:14:18  165

 Reversed flow on 5002 faces (19.0% area) of pressure-outlet 46.

 Reversed flow on 568 faces (96.7% area) of pressure-inlet 42.

 time step reduced in 218 cells due to excessive temperature change

 absolute pressure limited to 1.000000e+00 in 337 cells on zone 2297 

 absolute pressure limited to 5.000000e+10 in 1043 cells on zone 2297 

 temperature limited to 1.000000e+00 in 252 cells on zone 2297 

 temperature limited to 5.000000e+03 in 9667 cells on zone 2297 
   336  1.4177e+06  1.2357e+10  1.9992e+10  2.9955e+10  2.7238e+13  0:13:43  164

 Reversed flow on 5002 faces (19.0% area) of pressure-outlet 46.

 Reversed flow on 568 faces (96.7% area) of pressure-inlet 42.

 time step reduced in 226 cells due to excessive temperature change

 absolute pressure limited to 1.000000e+00 in 337 cells on zone 2297 

 absolute pressure limited to 5.000000e+10 in 1046 cells on zone 2297 

 temperature limited to 1.000000e+00 in 254 cells on zone 2297 

 temperature limited to 5.000000e+03 in 9682 cells on zone 2297 
   337  1.4140e+06  1.2357e+10  1.9992e+10  2.9955e+10  2.7238e+13  0:13:18  163

 Reversed flow on 5002 faces (19.0% area) of pressure-outlet 46.

 Reversed flow on 568 faces (96.7% area) of pressure-inlet 42.

 time step reduced in 237 cells due to excessive temperature change

 absolute pressure limited to 1.000000e+00 in 348 cells on zone 2297 

 absolute pressure limited to 5.000000e+10 in 1048 cells on zone 2297 

 temperature limited to 1.000000e+00 in 256 cells on zone 2297 

 temperature limited to 5.000000e+03 in 9702 cells on zone 2297 
   338  1.4141e+06  1.2357e+10  1.9992e+10  2.9955e+10  2.7238e+13  0:13:16  162

 Reversed flow on 5003 faces (19.0% area) of pressure-outlet 46.

 Reversed flow on 568 faces (96.7% area) of pressure-inlet 42.

 time step reduced in 245 cells due to excessive temperature change

 absolute pressure limited to 1.000000e+00 in 352 cells on zone 2297 

 absolute pressure limited to 5.000000e+10 in 1048 cells on zone 2297 

 temperature limited to 1.000000e+00 in 274 cells on zone 2297 

 temperature limited to 5.000000e+03 in 9727 cells on zone 2297 
   339  1.4142e+06  1.2357e+10  1.9992e+10  2.9955e+10  2.7237e+13  0:12:44  161
Done.

Operation stopped.
/exit y
(cx-gui-do cx-activate-item "Question*OK")

Posting ANSYS Product Improvement Program performance data 
Done.
Auto-Transcript Stop Time:  17:54:53, 13 Jul 2026 South Africa Standard Time 
Total Transcript Time: 43 Minute 14 Second.
