Auto-Transcript Start Time:  11:49:16, 14 Jul 2026 South Africa Standard Time 
Current Directory: "C:\Users\Simon\Projects\MEng Electronics\Development of a Resistojet Thruster\2) Simulations\CFD"

              Welcome to ANSYS Fluent 2026 R1

              Copyright 2026 Synopsys, Inc. and ANSYS, Inc. All rights reserved.
              Unauthorized use, distribution or duplication is prohibited.
              This product is subject to U.S. laws governing export and re-export.
              For full Legal Notice, see documentation.

Build Time: Feb  2 2026 16:32:00 EST  Build Id: 10262  
 
Connected License Server List:	<Non FlexNet Publisher License Server (FNPLS)>

     --------------------------------------------------------------
     This is a student version of ANSYS FLUENT. Usage of this product
     license is limited to the terms and conditions specified in your ANSYS
     license form, additional terms section.
     --------------------------------------------------------------
Host spawning Node 0 on machine "SimonAsusLaptop" (win64).
Host waiting for connection from Node 0 at 127.0.0.1:61808 

Node 0 connecting to the Host ... connection established.

------------------------------------------------------------------------------------------
ID    Hostname         Core  O.S.         PID    CPU Model Name                          
------------------------------------------------------------------------------------------
n3    SimonAsusLaptop  4/20  Windows-x64  67532  12th Gen Intel(R) Core(TM) i7-12700H    
n2    SimonAsusLaptop  3/20  Windows-x64  69864  12th Gen Intel(R) Core(TM) i7-12700H    
n1    SimonAsusLaptop  2/20  Windows-x64  47280  12th Gen Intel(R) Core(TM) i7-12700H    
n0*   SimonAsusLaptop  1/20  Windows-x64  28436  12th Gen Intel(R) Core(TM) i7-12700H    
host  SimonAsusLaptop        Windows-x64  66032  12th Gen Intel(R) Core(TM) i7-12700H    

MPI Option Selected: intel
Selected system interconnect: default
------------------------------------------------------------------------------------------

Cleanup script file is C:\\Users\\Simon\\Projects\\MEng Electronics\\Development of a Resistojet Thruster\\2) Simulations\\CFD\\cleanup-fluent-SimonAsusLaptop-66032.bat
Note: Rank = 0: Process affinity not being set (6).
Note: Rank = 1: Process affinity not being set (6).
Note: Rank = 2: Process affinity not being set (6).
Note: Rank = 3: Process affinity not being set (6).

Graphics driver currently in use: dx11


Posting ANSYS Product Improvement Program startup data
Done.
(cx-use-window-id 51)
(handle-key "")

> (cx-gui-do cx-set-list-tree-selections "NavigationPane*Frame2*Table1*List_Tree2" (list "Setup|Materials"))
(cx-gui-do cx-set-list-tree-selections "NavigationPane*Frame2*Table1*List_Tree2" (list "Setup|Materials"))
(cx-gui-do cx-set-list-tree-selections "NavigationPane*Frame2*Table1*List_Tree2" (list "Setup|Materials"))
(cx-gui-do cx-activate-item "NavigationPane*Frame2*Table1*List_Tree2")
(cx-gui-do cx-set-list-tree-selections "NavigationPane*Frame2*Table1*List_Tree2" (list "Setup|Materials"))
(cx-gui-do cx-activate-item "MenuBar*ReadSubMenu*Mesh...")
(cx-gui-do cx-set-file-dialog-entries "Select File" '( "Nozzle_axial.msh.h5") "CFF Mesh Files (*.msh.h5 )")
Fast-loading "C:\PROGRA~1\ANSYSI~1\ANSYSS~1\v261\fluent\fluent26.1.0\\addons\afd\lib\hdfio.bin"
Done.

Reading from SimonAsusLaptop:"C:/Users/Simon/Projects/MEng Electronics/Development of a Resistojet Thruster/2) Simulations/CFD/Nozzle_axial.msh.h5" in NODE0 mode ...
  Reading mesh ...
      487606 cells,     3 cell zones ...
         123178 mixed cells,  zone id: 2287
          71222 mixed cells,  zone id: 2292
         293206 mixed cells,  zone id: 2297
     2283467 faces,    10 face zones ...
           5376 polygonal wall faces,  zone id: 1969
           1951 polygonal wall faces,  zone id: 1882
            190 polygonal internal faces,  zone id: 999
            190 polygonal wall faces,  zone id: 48
           1543 polygonal wall faces,  zone id: 47
          26672 polygonal pressure-outlet faces,  zone id: 46
            618 polygonal pressure-inlet faces,  zone id: 42
        1345918 mixed interior faces,  zone id: 2299
         365279 mixed interior faces,  zone id: 2294
         535730 mixed interior faces,  zone id: 2289
     1418602 nodes,    10 node zones ...

Building...
     mesh
	distributing mesh
		parts....,
		faces....,
		nodes....,
		cells....,
        bandwidth reduction using Reverse Cuthill-McKee: 113042/2519 = 44.8757
  Reading boundary layer flags ...
  Done.

     materials,
     interface,
     domains,
     zones,
	internal-wall:1969-shadow
	nozzle-volume-vacuum-shadow
	Skipping thread 18 of domain 1 (not referenced by grid).
	Skipping thread 19 of domain 1 (not referenced by grid).
	Skipping thread 20 of domain 1 (not referenced by grid).
	Skipping thread 33 of domain 1 (not referenced by grid).
	Skipping thread 34 of domain 1 (not referenced by grid).
	Skipping thread 35 of domain 1 (not referenced by grid).
	Skipping thread 36 of domain 1 (not referenced by grid).
	Skipping thread 37 of domain 1 (not referenced by grid).
	Skipping thread 38 of domain 1 (not referenced by grid).
	Skipping thread 39 of domain 1 (not referenced by grid).
	Skipping thread 40 of domain 1 (not referenced by grid).
	Skipping thread 41 of domain 1 (not referenced by grid).
	Skipping thread 59 of domain 1 (not referenced by grid).
	Skipping thread 61 of domain 1 (not referenced by grid).
	Skipping thread 62 of domain 1 (not referenced by grid).
	Skipping thread 64 of domain 1 (not referenced by grid).
	Skipping thread 74 of domain 1 (not referenced by grid).
	Skipping thread 75 of domain 1 (not referenced by grid).
	Skipping thread 77 of domain 1 (not referenced by grid).
	Skipping thread 78 of domain 1 (not referenced by grid).
	internal-wall:1969
	nozzle-volume-vacuum
	outlet:999
	nozzle-wall
	nozzle:1
	vacuum-boundaries
	inlet
	interior--volume-vacuum
	interior--nozzle
	interior--volume-fluid
	volume-fluid
	volume-vacuum
	nozzle
     parallel,
Done.
Mesh is now scaled to meters.
Re-partitioning the mesh as its not evenly distributed.
/parallel/partition/method metis ,
>> Dividing domain into 4 partitions using Metis.
   Time = 0.514 seconds.
   Done.

>> 4 Stored Partitions:
   ----------------------------------------------------------------------
   Collective Partition Statistics:        Minimum   Maximum   Total     
   ----------------------------------------------------------------------
   Cell count                              118013    124244    487606    
   Mean cell count deviation               -3.2%     1.9%      
   Partition boundary cell count           1799      4730      13005     
   Partition boundary cell count ratio     1.5%      3.8%      2.7%      

   Face count                              567557    583103    2290794   
   Mean face count deviation               -1.5%     1.2%      
   Partition boundary face count           4179      10033     14212     
   Partition boundary face count ratio     0.7%      1.7%      0.6%      

   Cell weights                            8e+05     1e+06     4e+06     
   Mean cell weight deviation              -20.3%    17.3%     

   Fluid cells                             80214     124244    416384    
   Mean fluid cell deviation               -22.9%    19.4%     

   Solid cells                             0         41301     71222     
   Mean solid cell deviation               -100.0%   132.0%    

   Partition neighbor count                1         2         
   ----------------------------------------------------------------------
   Partition Method                        Metis                                
   Stored Partition Count                  4                                    
Done.

   Smoothing partition boundaries.../parallel/partition/use-stored
Migrating partitions to compute-nodes.
>> 4 Active Partitions:
    P   Cells I-Cells Cell Ratio   Faces I-Faces Face Ratio Neighbors Load  Ext Cells   F-Cells   S-Cells
    0  124244    2254      0.018  575895    4877      0.008         1    1       2262    124244         0
    1  121515    1799      0.015  567557    4179      0.007         1    1       1815     80214     41301
    2  123834    4730      0.038  578451   10033      0.017         2    1       4661    123834         0
    3  118013    4222      0.036  583103    9335      0.016         2    1       4267     88092     29921

   ----------------------------------------------------------------------
   Collective Partition Statistics:        Minimum   Maximum   Total     
   ----------------------------------------------------------------------
   Cell count                              118013    124244    487606    
   Mean cell count deviation               -3.2%     1.9%      
   Partition boundary cell count           1799      4730      13005     
   Partition boundary cell count ratio     1.5%      3.8%      2.7%      

   Face count                              567557    583103    2290794   
   Mean face count deviation               -1.5%     1.2%      
   Partition boundary face count           4179      10033     14212     
   Partition boundary face count ratio     0.7%      1.7%      0.6%      

   Fluid cells                             80214     124244    416384    
   Mean fluid cell deviation               -22.9%    19.4%     

   Solid cells                             0         41301     71222     
   Mean solid cell deviation               -100.0%   132.0%    

   Partition neighbor count                1         2         
   ----------------------------------------------------------------------
   Partition Method                        Metis                                
   Stored Partition Count                  4                                    
Done.
(cx-gui-do cx-set-list-tree-selections "NavigationPane*Frame2*Table1*List_Tree2" (list "Setup|General"))
(cx-gui-do cx-set-list-tree-selections "NavigationPane*Frame2*Table1*List_Tree2" (list "Setup|General"))
(cx-gui-do cx-set-list-tree-selections "NavigationPane*Frame2*Table1*List_Tree2" (list "Setup|General"))
(cx-gui-do cx-activate-item "NavigationPane*Frame2*Table1*List_Tree2")
(cx-gui-do cx-set-list-tree-selections "NavigationPane*Frame2*Table1*List_Tree2" (list "Setup|General"))
(cx-gui-do cx-set-toggle-button2 "General*Table1*Table2(Solver)*ButtonBox1(Type)*Density-Based" #t)
(cx-gui-do cx-activate-item "General*Table1*Table2(Solver)*ButtonBox1(Type)*Density-Based")
(cx-gui-do cx-activate-item "Ribbon*Frame1*Frame2(Domain)*Table1*Table3(Mesh)*PushButton4(Check)")
(cx-gui-do cx-activate-item "MenuBar*PopupMenuCheck*Perform Mesh Check")

 Domain Extents:
   x-coordinate: min (m) = -2.204052e-42, max (m) = 1.285779e-01
   y-coordinate: min (m) = -2.499652e-02, max (m) = 2.499636e-02
   z-coordinate: min (m) = -2.499591e-02, max (m) = 2.499646e-02
 Volume statistics:
   minimum volume (m3): 1.816667e-17
   maximum volume (m3): 2.175236e-09
     total volume (m3): 2.371161e-04
 Face area statistics:
   minimum face area (m2): 1.020526e-14
   maximum face area (m2): 1.638400e-06
 Checking mesh..........................................
 Done.
(cx-gui-do cx-activate-item "Ribbon*Frame1*Frame2(Domain)*Table1*Table3(Mesh)*PushButton5(  Quality)")
(cx-gui-do cx-activate-item "MenuBar*PopupMenuQuality*Evaluate Mesh Quality")

Mesh Quality:

Minimum Orthogonal Quality =  2.55038e-01 cell 63955 on zone 2287 (ID: 64654 on partition: 1) at location ( 1.04192e-02, -5.90925e-06,  5.76307e-05)


Maximum Aspect Ratio =  3.44899e+01 cell 41509 on zone 2287 (ID: 122445 on partition: 3) at location ( 2.80009e-02,  4.80430e-03,  1.39807e-04)
(cx-gui-do cx-set-list-tree-selections "NavigationPane*Frame2*Table1*List_Tree2" (list "Setup|Models"))
(cx-gui-do cx-set-toggle-button2 "Ribbon*Frame1*Frame3(Physics)*Table1*Table3(Models)*CheckButton1(Energy)" #t)
(cx-gui-do cx-activate-item "Ribbon*Frame1*Frame3(Physics)*Table1*Table3(Models)*CheckButton1(Energy)")
(cx-gui-do cx-activate-item "Ribbon*Frame1*Frame3(Physics)*Table1*Table3(Models)*PushButton4(Viscous)")
(cx-gui-do cx-set-toggle-button2 "Viscous Model*Table1*ToggleBox1(Model)*k-epsilon (2 eqn)" #t)
(cx-gui-do cx-activate-item "Viscous Model*Table1*ToggleBox1(Model)*k-epsilon (2 eqn)")
(cx-gui-do cx-set-toggle-button2 "Viscous Model*Table1*ToggleBox1(Model)*k-omega (2 eqn)" #t)
(cx-gui-do cx-activate-item "Viscous Model*Table1*ToggleBox1(Model)*k-omega (2 eqn)")
(cx-gui-do cx-set-toggle-button2 "Viscous Model*Table1*ToggleBox1(Model)*Inviscid" #t)
(cx-gui-do cx-activate-item "Viscous Model*Table1*ToggleBox1(Model)*Inviscid")
(cx-gui-do cx-set-toggle-button2 "Viscous Model*Table1*ToggleBox1(Model)*Laminar" #t)
(cx-gui-do cx-activate-item "Viscous Model*Table1*ToggleBox1(Model)*Laminar")
(cx-gui-do cx-activate-item "Viscous Model*PanelButtons*PushButton1(OK)")
(cx-gui-do cx-activate-item "Ribbon*Frame1*Frame3(Physics)*Table1*Table3(Models)*PushButton4(Viscous)")
(cx-gui-do cx-activate-item "Viscous Model*PanelButtons*PushButton1(OK)")
(cx-gui-do cx-set-list-tree-selections "NavigationPane*Frame2*Table1*List_Tree2" (list "Setup|Materials|Fluid|air"))
(cx-gui-do cx-set-list-tree-selections "NavigationPane*Frame2*Table1*List_Tree2" (list "Setup|Materials|Fluid|air"))
(cx-gui-do cx-activate-item "NavigationPane*Frame2*Table1*List_Tree2")
(cx-gui-do cx-set-list-tree-selections "NavigationPane*Frame2*Table1*List_Tree2" (list "Setup|Materials|Fluid|air"))
(cx-gui-do cx-set-text-entry "Create/Edit Materials*Table1*Frame1*Table1*TextEntry1(Name)" "r134a-approx")
(cx-gui-do cx-set-list-selections "Create/Edit Materials*Table2*Table1(Properties)*DropDownList4(Density)" '( 1))
(cx-gui-do cx-activate-item "Create/Edit Materials*Table2*Table1(Properties)*DropDownList4(Density)")
(cx-gui-do cx-set-list-selections "Create/Edit Materials*Table2*Table1(Properties)*DropDownList5(Cp (Specific Heat))" '( 2))
(cx-gui-do cx-activate-item "Create/Edit Materials*Table2*Table1(Properties)*DropDownList5(Cp (Specific Heat))")
(cx-gui-do cx-activate-item "Piecewise-Polynomial Profile*PanelButtons*PushButton2(Cancel)")
(cx-gui-do cx-activate-item "Create/Edit Materials*PushButton11(Edit)")
(cx-gui-do cx-set-integer-entry "Piecewise-Polynomial Profile*Table1*Table2*IntegerEntry4(Coefficients)" 7)
(cx-gui-do cx-activate-item "Piecewise-Polynomial Profile*Table1*Table2*IntegerEntry4(Coefficients)")
(cx-gui-do cx-set-integer-entry "Piecewise-Polynomial Profile*Table1*Table2*IntegerEntry4(Coefficients)" 6)
(cx-gui-do cx-activate-item "Piecewise-Polynomial Profile*Table1*Table2*IntegerEntry4(Coefficients)")
(cx-gui-do cx-set-integer-entry "Piecewise-Polynomial Profile*Table1*Table2*IntegerEntry4(Coefficients)" 5)
(cx-gui-do cx-activate-item "Piecewise-Polynomial Profile*Table1*Table2*IntegerEntry4(Coefficients)")
(cx-gui-do cx-set-integer-entry "Piecewise-Polynomial Profile*Table1*Table2*IntegerEntry4(Coefficients)" 6)
(cx-gui-do cx-activate-item "Piecewise-Polynomial Profile*Table1*Table2*IntegerEntry4(Coefficients)")
(cx-gui-do cx-set-integer-entry "Piecewise-Polynomial Profile*Table1*Table2*IntegerEntry4(Coefficients)" 5)
(cx-gui-do cx-activate-item "Piecewise-Polynomial Profile*Table1*Table2*IntegerEntry4(Coefficients)")
(cx-gui-do cx-set-integer-entry "Piecewise-Polynomial Profile*Table1*Table2*IntegerEntry1(Range)" 2)
(cx-gui-do cx-activate-item "Piecewise-Polynomial Profile*Table1*Table2*IntegerEntry1(Range)")
(cx-gui-do cx-set-integer-entry "Piecewise-Polynomial Profile*Table1*Table2*IntegerEntry1(Range)" 1)
(cx-gui-do cx-activate-item "Piecewise-Polynomial Profile*Table1*Table2*IntegerEntry1(Range)")
(cx-gui-do cx-set-real-entry-list "Piecewise-Polynomial Profile*Table1*Table3(Coefficients)*RealEntry1(1)" '( 204.4021))
(cx-gui-do cx-activate-item "Piecewise-Polynomial Profile*Table1*Table3(Coefficients)*RealEntry1(1)")
(cx-gui-do cx-set-real-entry-list "Piecewise-Polynomial Profile*Table1*Table3(Coefficients)*RealEntry2(2)" '( 2.529209))
(cx-gui-do cx-activate-item "Piecewise-Polynomial Profile*Table1*Table3(Coefficients)*RealEntry2(2)")
(cx-gui-do cx-set-real-entry-list "Piecewise-Polynomial Profile*Table1*Table3(Coefficients)*RealEntry3(3)" '( -0.001686461))
(cx-gui-do cx-activate-item "Piecewise-Polynomial Profile*Table1*Table3(Coefficients)*RealEntry3(3)")
(cx-gui-do cx-set-real-entry-list "Piecewise-Polynomial Profile*Table1*Table3(Coefficients)*RealEntry4(4)" '( 1.016107e-06))
(cx-gui-do cx-activate-item "Piecewise-Polynomial Profile*Table1*Table3(Coefficients)*RealEntry4(4)")
(cx-gui-do cx-set-real-entry-list "Piecewise-Polynomial Profile*Table1*Table3(Coefficients)*RealEntry5(5)" '( -9.92857e-10))
(cx-gui-do cx-activate-item "Piecewise-Polynomial Profile*Table1*Table3(Coefficients)*RealEntry5(5)")
(cx-gui-do cx-set-real-entry-list "Piecewise-Polynomial Profile*Table1*Table3(Coefficients)*RealEntry5(5)" '( -2.650944e-10))
(cx-gui-do cx-activate-item "Piecewise-Polynomial Profile*Table1*Table3(Coefficients)*RealEntry5(5)")
(cx-gui-do cx-set-integer-entry "Piecewise-Polynomial Profile*Table1*Table2*IntegerEntry1(Range)" 2)
(cx-gui-do cx-activate-item "Piecewise-Polynomial Profile*Table1*Table2*IntegerEntry1(Range)")
(cx-gui-do cx-set-real-entry-list "Piecewise-Polynomial Profile*Table1*Table3(Coefficients)*RealEntry1(1)" '( 332.365))
(cx-gui-do cx-activate-item "Piecewise-Polynomial Profile*Table1*Table3(Coefficients)*RealEntry1(1)")
(cx-gui-do cx-set-integer-entry "Piecewise-Polynomial Profile*Table1*Table2*IntegerEntry4(Coefficients)" 6)
(cx-gui-do cx-activate-item "Piecewise-Polynomial Profile*Table1*Table2*IntegerEntry4(Coefficients)")
(cx-gui-do cx-set-integer-entry "Piecewise-Polynomial Profile*Table1*Table2*IntegerEntry4(Coefficients)" 4)
(cx-gui-do cx-activate-item "Piecewise-Polynomial Profile*Table1*Table2*IntegerEntry4(Coefficients)")
(cx-gui-do cx-set-integer-entry "Piecewise-Polynomial Profile*Table1*Table2*IntegerEntry4(Coefficients)" 5)
(cx-gui-do cx-activate-item "Piecewise-Polynomial Profile*Table1*Table2*IntegerEntry4(Coefficients)")
(cx-gui-do cx-set-real-entry-list "Piecewise-Polynomial Profile*Table1*Table3(Coefficients)*RealEntry2(2)" '( 1.936806))
(cx-gui-do cx-activate-item "Piecewise-Polynomial Profile*Table1*Table3(Coefficients)*RealEntry2(2)")
(cx-gui-do cx-set-real-entry-list "Piecewise-Polynomial Profile*Table1*Table3(Coefficients)*RealEntry3(3)" '( -0.0006513725))
(cx-gui-do cx-activate-item "Piecewise-Polynomial Profile*Table1*Table3(Coefficients)*RealEntry3(3)")
(cx-gui-do cx-set-real-entry-list "Piecewise-Polynomial Profile*Table1*Table3(Coefficients)*RealEntry4(4)" '( 2.112883e-07))
(cx-gui-do cx-activate-item "Piecewise-Polynomial Profile*Table1*Table3(Coefficients)*RealEntry4(4)")
(cx-gui-do cx-set-real-entry-list "Piecewise-Polynomial Profile*Table1*Table3(Coefficients)*RealEntry5(5)" '( -3.092385e-11))
(cx-gui-do cx-activate-item "Piecewise-Polynomial Profile*Table1*Table3(Coefficients)*RealEntry5(5)")
(cx-gui-do cx-set-integer-entry "Piecewise-Polynomial Profile*Table1*Table2*IntegerEntry1(Range)" 1)
(cx-gui-do cx-activate-item "Piecewise-Polynomial Profile*Table1*Table2*IntegerEntry1(Range)")
(cx-gui-do cx-set-integer-entry "Piecewise-Polynomial Profile*Table1*Table2*IntegerEntry1(Range)" 2)
(cx-gui-do cx-activate-item "Piecewise-Polynomial Profile*Table1*Table2*IntegerEntry1(Range)")
(cx-gui-do cx-set-real-entry-list "Piecewise-Polynomial Profile*Table1*Table2*RealEntry3(Maximum)" '( 1500))
(cx-gui-do cx-activate-item "Piecewise-Polynomial Profile*Table1*Table2*RealEntry3(Maximum)")
(cx-gui-do cx-activate-item "Piecewise-Polynomial Profile*PanelButtons*PushButton1(OK)")
(cx-gui-do cx-activate-item "Question*OK")
(cx-gui-do cx-set-real-entry-list "Create/Edit Materials*RealEntry18" '( 102.032))
(cx-gui-do cx-set-real-entry-list "Create/Edit Materials*RealEntry16" '( 2.2e-05))
(cx-gui-do cx-activate-item "Create/Edit Materials*PanelButtons*PushButton3(Change/Create)")
(cx-gui-do cx-activate-item "Create/Edit Materials*PanelButtons*PushButton1(Close)")
(cx-gui-do cx-set-list-tree-selections "NavigationPane*Frame2*Table1*List_Tree2" (list "Setup|Boundary Conditions|Inlet"))
(cx-gui-do cx-set-list-tree-selections "NavigationPane*Frame2*Table1*List_Tree2" (list "Setup|Boundary Conditions|Inlet"))
(cx-gui-do cx-activate-item "NavigationPane*Frame2*Table1*List_Tree2")
(cx-gui-do cx-set-list-tree-selections "NavigationPane*Frame2*Table1*List_Tree2" (list "Setup|Boundary Conditions|Inlet"))
(cx-gui-do cx-activate-tab-index "Pressure Inlet*Frame2*Frame2" 0)
(cx-gui-do cx-activate-tab-index "Pressure Inlet*Frame2*Frame2" 1)
(cx-gui-do cx-activate-tab-index "Pressure Inlet*Frame2*Frame2" 0)
(cx-gui-do cx-activate-tab-index "Pressure Inlet*Frame2*Frame2" 2)
(cx-gui-do cx-activate-tab-index "Pressure Inlet*Frame2*Frame2" 0)
(cx-gui-do cx-activate-tab-index "Pressure Inlet*Frame2*Frame2" 3)
(cx-gui-do cx-activate-tab-index "Pressure Inlet*Frame2*Frame2" 0)
(cx-gui-do cx-activate-tab-index "Pressure Inlet*Frame2*Frame2" 4)
(cx-gui-do cx-activate-tab-index "Pressure Inlet*Frame2*Frame2" 0)
(cx-gui-do cx-activate-tab-index "Pressure Inlet*Frame2*Frame2" 5)
(cx-gui-do cx-activate-tab-index "Pressure Inlet*Frame2*Frame2" 0)
(cx-gui-do cx-activate-tab-index "Pressure Inlet*Frame2*Frame2" 6)
(cx-gui-do cx-activate-tab-index "Pressure Inlet*Frame2*Frame2" 0)
(cx-gui-do cx-activate-tab-index "Pressure Inlet*Frame2*Frame2" 7)
(cx-gui-do cx-activate-tab-index "Pressure Inlet*Frame2*Frame2" 0)
(cx-gui-do cx-activate-tab-index "Pressure Inlet*Frame2*Frame2" 8)
(cx-gui-do cx-activate-tab-index "Pressure Inlet*Frame2*Frame2" 0)
(cx-gui-do cx-enable-apply-button "Pressure Inlet")
(cx-gui-do cx-set-expression-entry "Pressure Inlet*Frame2*Frame2*Frame1(Momentum)*Table1*Table7*ExpressionEntry1(Gauge Total Pressure)" '("500000" . 0))
(cx-gui-do cx-set-expression-entry "Pressure Inlet*Frame2*Frame2*Frame1(Momentum)*Table1*Table7*ExpressionEntry1(Gauge Total Pressure)" '("500000" . 0))
(cx-gui-do cx-set-expression-entry "Pressure Inlet*Frame2*Frame2*Frame1(Momentum)*Table1*Table8*ExpressionEntry1(Supersonic/Initial Gauge Pressure)" '("0" . 0))
(cx-gui-do cx-set-expression-entry "Pressure Inlet*Frame2*Frame2*Frame1(Momentum)*Table1*Table8*ExpressionEntry1(Supersonic/Initial Gauge Pressure)" '("480000" . 0))
(cx-gui-do cx-activate-tab-index "Pressure Inlet*Frame2*Frame2" 1)
(cx-gui-do cx-set-expression-entry "Pressure Inlet*Frame2*Frame2*Frame2(Thermal)*Table1*Table1*ExpressionEntry1(Total Temperature)" '("600" . 0))
(cx-gui-do cx-activate-tab-index "Pressure Inlet*Frame2*Frame2" 0)
(cx-gui-do cx-set-toggle-button2 "Pressure Inlet*Frame2*Frame2*Frame1(Momentum)*Table1*CheckButton17(Prevent Reverse Flow)" #t)
(cx-gui-do cx-activate-item "Pressure Inlet*Frame2*Frame2*Frame1(Momentum)*Table1*CheckButton17(Prevent Reverse Flow)")
(cx-gui-do cx-set-toggle-button2 "Pressure Inlet*Frame2*Frame2*Frame1(Momentum)*Table1*CheckButton17(Prevent Reverse Flow)" #f)
(cx-gui-do cx-activate-item "Pressure Inlet*Frame2*Frame2*Frame1(Momentum)*Table1*CheckButton17(Prevent Reverse Flow)")
(cx-gui-do cx-set-toggle-button2 "Pressure Inlet*Frame2*Frame2*Frame1(Momentum)*Table1*CheckButton17(Prevent Reverse Flow)" #t)
(cx-gui-do cx-activate-item "Pressure Inlet*Frame2*Frame2*Frame1(Momentum)*Table1*CheckButton17(Prevent Reverse Flow)")
(cx-gui-do cx-activate-item "Pressure Inlet*PanelButtons*PushButton1(OK)")
(cx-gui-do cx-activate-item "Pressure Inlet*PanelButtons*PushButton1(OK)")
(cx-gui-do cx-activate-tab-index "Pressure Inlet*Frame2*Frame2" 1)
(cx-gui-do cx-activate-item "Pressure Inlet*PanelButtons*PushButton2(Cancel)")
(cx-gui-do cx-set-list-tree-selections "NavigationPane*Frame2*Table1*List_Tree2" (list "Setup|Boundary Conditions|Internal|outlet:999 (interior, id=999)"))
(cx-gui-do cx-set-list-tree-selections "NavigationPane*Frame2*Table1*List_Tree2" (list "Setup|Boundary Conditions|Internal|outlet:999 (interior, id=999)"))
(cx-gui-do cx-activate-item "NavigationPane*Frame2*Table1*List_Tree2")
(cx-gui-do cx-set-list-tree-selections "NavigationPane*Frame2*Table1*List_Tree2" (list "Setup|Boundary Conditions|Internal|outlet:999 (interior, id=999)"))
(cx-gui-do cx-activate-item "Interior*PanelButtons*PushButton2(Cancel)")
(cx-gui-do cx-set-list-tree-selections "NavigationPane*Frame2*Table1*List_Tree2" (list "Setup|Boundary Conditions|Wall|nozzle:1 (wall, id=47)"))
(cx-gui-do cx-set-list-tree-selections "NavigationPane*Frame2*Table1*List_Tree2" (list "Setup|Boundary Conditions|Wall|nozzle:1 (wall, id=47)"))
(cx-gui-do cx-activate-item "NavigationPane*Frame2*Table1*List_Tree2")
(cx-gui-do cx-set-list-tree-selections "NavigationPane*Frame2*Table1*List_Tree2" (list "Setup|Boundary Conditions|Wall|nozzle:1 (wall, id=47)"))
(cx-gui-do cx-activate-tab-index "Wall*Frame4" 0)
(cx-gui-do cx-activate-tab-index "Wall*Frame4" 1)
(cx-gui-do cx-activate-tab-index "Wall*Frame4" 0)
(cx-gui-do cx-activate-tab-index "Wall*Frame4" 2)
(cx-gui-do cx-activate-tab-index "Wall*Frame4" 0)
(cx-gui-do cx-activate-tab-index "Wall*Frame4" 3)
(cx-gui-do cx-activate-tab-index "Wall*Frame4" 0)
(cx-gui-do cx-activate-tab-index "Wall*Frame4" 4)
(cx-gui-do cx-activate-tab-index "Wall*Frame4" 0)
(cx-gui-do cx-activate-tab-index "Wall*Frame4" 5)
(cx-gui-do cx-activate-tab-index "Wall*Frame4" 0)
(cx-gui-do cx-activate-tab-index "Wall*Frame4" 6)
(cx-gui-do cx-activate-tab-index "Wall*Frame4" 0)
(cx-gui-do cx-activate-tab-index "Wall*Frame4" 7)
(cx-gui-do cx-activate-tab-index "Wall*Frame4" 0)
(cx-gui-do cx-activate-tab-index "Wall*Frame4" 8)
(cx-gui-do cx-activate-tab-index "Wall*Frame4" 0)
(cx-gui-do cx-activate-tab-index "Wall*Frame4" 9)
(cx-gui-do cx-activate-tab-index "Wall*Frame4" 0)
(cx-gui-do cx-activate-tab-index "Wall*Frame4" 10)
(cx-gui-do cx-activate-tab-index "Wall*Frame4" 0)
(cx-gui-do cx-activate-tab-index "Wall*Frame4*Frame8(Wall Film)*Frame1*Frame2" 0)
(cx-gui-do cx-activate-tab-index "Wall*Frame4*Frame8(Wall Film)*Frame1*Frame2" 1)
(cx-gui-do cx-activate-tab-index "Wall*Frame4*Frame8(Wall Film)*Frame1*Frame2" 0)
(cx-gui-do cx-activate-tab-index "Wall*Frame4*Frame8(Wall Film)*Frame1*Frame2" 2)
(cx-gui-do cx-activate-tab-index "Wall*Frame4*Frame8(Wall Film)*Frame1*Frame2" 0)
(cx-gui-do cx-activate-tab-index "Wall*Frame4*Frame8(Wall Film)*Frame1*Frame2" 3)
(cx-gui-do cx-activate-tab-index "Wall*Frame4*Frame8(Wall Film)*Frame1*Frame2" 0)
(cx-gui-do cx-activate-tab-index "Wall*Frame4*Frame8(Wall Film)*Frame1*Frame2" 4)
(cx-gui-do cx-activate-tab-index "Wall*Frame4*Frame8(Wall Film)*Frame1*Frame2" 0)
(cx-gui-do cx-activate-tab-index "Wall*Frame4*Frame8(Wall Film)*Frame1*Frame2" 5)
(cx-gui-do cx-activate-tab-index "Wall*Frame4*Frame8(Wall Film)*Frame1*Frame2" 0)
(cx-gui-do cx-activate-tab-index "Wall*Frame4*Frame8(Wall Film)*Frame1*Frame2" 6)
(cx-gui-do cx-activate-tab-index "Wall*Frame4*Frame8(Wall Film)*Frame1*Frame2" 0)
(cx-gui-do cx-activate-tab-index "Wall*Frame4" 1)
(cx-gui-do cx-activate-item "Wall*PanelButtons*PushButton2(Cancel)")
(cx-gui-do cx-set-list-tree-selections "NavigationPane*Frame2*Table1*List_Tree2" (list "Setup|Boundary Conditions|Wall|internal-wall:1969 (wall, id=1969)"))
(cx-gui-do cx-set-list-tree-selections "NavigationPane*Frame2*Table1*List_Tree2" (list "Setup|Boundary Conditions|Wall|internal-wall:1969 (wall, id=1969)"))
(cx-gui-do cx-activate-item "NavigationPane*Frame2*Table1*List_Tree2")
(cx-gui-do cx-set-list-tree-selections "NavigationPane*Frame2*Table1*List_Tree2" (list "Setup|Boundary Conditions|Wall|internal-wall:1969 (wall, id=1969)"))
(cx-gui-do cx-activate-tab-index "Wall*Frame4" 0)
(cx-gui-do cx-activate-tab-index "Wall*Frame4" 1)
(cx-gui-do cx-activate-tab-index "Wall*Frame4" 0)
(cx-gui-do cx-activate-tab-index "Wall*Frame4" 2)
(cx-gui-do cx-activate-tab-index "Wall*Frame4" 0)
(cx-gui-do cx-activate-tab-index "Wall*Frame4" 3)
(cx-gui-do cx-activate-tab-index "Wall*Frame4" 0)
(cx-gui-do cx-activate-tab-index "Wall*Frame4" 4)
(cx-gui-do cx-activate-tab-index "Wall*Frame4" 0)
(cx-gui-do cx-activate-tab-index "Wall*Frame4" 5)
(cx-gui-do cx-activate-tab-index "Wall*Frame4" 0)
(cx-gui-do cx-activate-tab-index "Wall*Frame4" 6)
(cx-gui-do cx-activate-tab-index "Wall*Frame4" 0)
(cx-gui-do cx-activate-tab-index "Wall*Frame4" 7)
(cx-gui-do cx-activate-tab-index "Wall*Frame4" 0)
(cx-gui-do cx-activate-tab-index "Wall*Frame4" 8)
(cx-gui-do cx-activate-tab-index "Wall*Frame4" 0)
(cx-gui-do cx-activate-tab-index "Wall*Frame4" 9)
(cx-gui-do cx-activate-tab-index "Wall*Frame4" 0)
(cx-gui-do cx-activate-tab-index "Wall*Frame4" 10)
(cx-gui-do cx-activate-tab-index "Wall*Frame4" 0)
(cx-gui-do cx-activate-tab-index "Wall*Frame4*Frame8(Wall Film)*Frame1*Frame2" 0)
(cx-gui-do cx-activate-tab-index "Wall*Frame4*Frame8(Wall Film)*Frame1*Frame2" 1)
(cx-gui-do cx-activate-tab-index "Wall*Frame4*Frame8(Wall Film)*Frame1*Frame2" 0)
(cx-gui-do cx-activate-tab-index "Wall*Frame4*Frame8(Wall Film)*Frame1*Frame2" 2)
(cx-gui-do cx-activate-tab-index "Wall*Frame4*Frame8(Wall Film)*Frame1*Frame2" 0)
(cx-gui-do cx-activate-tab-index "Wall*Frame4*Frame8(Wall Film)*Frame1*Frame2" 3)
(cx-gui-do cx-activate-tab-index "Wall*Frame4*Frame8(Wall Film)*Frame1*Frame2" 0)
(cx-gui-do cx-activate-tab-index "Wall*Frame4*Frame8(Wall Film)*Frame1*Frame2" 4)
(cx-gui-do cx-activate-tab-index "Wall*Frame4*Frame8(Wall Film)*Frame1*Frame2" 0)
(cx-gui-do cx-activate-tab-index "Wall*Frame4*Frame8(Wall Film)*Frame1*Frame2" 5)
(cx-gui-do cx-activate-tab-index "Wall*Frame4*Frame8(Wall Film)*Frame1*Frame2" 0)
(cx-gui-do cx-activate-tab-index "Wall*Frame4*Frame8(Wall Film)*Frame1*Frame2" 6)
(cx-gui-do cx-activate-tab-index "Wall*Frame4*Frame8(Wall Film)*Frame1*Frame2" 0)
(cx-gui-do cx-activate-item "Wall*PanelButtons*PushButton2(Cancel)")
(cx-gui-do cx-set-list-tree-selections "NavigationPane*Frame2*Table1*List_Tree2" (list "Setup|Boundary Conditions|Wall|internal-wall:1969-shadow (wall, id=2)"))
(cx-gui-do cx-set-list-tree-selections "NavigationPane*Frame2*Table1*List_Tree2" (list "Setup|Boundary Conditions|Wall|internal-wall:1969-shadow (wall, id=2)"))
(cx-gui-do cx-activate-item "NavigationPane*Frame2*Table1*List_Tree2")
(cx-gui-do cx-set-list-tree-selections "NavigationPane*Frame2*Table1*List_Tree2" (list "Setup|Boundary Conditions|Wall|internal-wall:1969-shadow (wall, id=2)"))
(cx-gui-do cx-activate-tab-index "Wall*Frame4" 0)
(cx-gui-do cx-activate-tab-index "Wall*Frame4" 1)
(cx-gui-do cx-activate-tab-index "Wall*Frame4" 0)
(cx-gui-do cx-activate-tab-index "Wall*Frame4" 2)
(cx-gui-do cx-activate-tab-index "Wall*Frame4" 0)
(cx-gui-do cx-activate-tab-index "Wall*Frame4" 3)
(cx-gui-do cx-activate-tab-index "Wall*Frame4" 0)
(cx-gui-do cx-activate-tab-index "Wall*Frame4" 4)
(cx-gui-do cx-activate-tab-index "Wall*Frame4" 0)
(cx-gui-do cx-activate-tab-index "Wall*Frame4" 5)
(cx-gui-do cx-activate-tab-index "Wall*Frame4" 0)
(cx-gui-do cx-activate-tab-index "Wall*Frame4" 6)
(cx-gui-do cx-activate-tab-index "Wall*Frame4" 0)
(cx-gui-do cx-activate-tab-index "Wall*Frame4" 7)
(cx-gui-do cx-activate-tab-index "Wall*Frame4" 0)
(cx-gui-do cx-activate-tab-index "Wall*Frame4" 8)
(cx-gui-do cx-activate-tab-index "Wall*Frame4" 0)
(cx-gui-do cx-activate-tab-index "Wall*Frame4" 9)
(cx-gui-do cx-activate-tab-index "Wall*Frame4" 0)
(cx-gui-do cx-activate-tab-index "Wall*Frame4" 10)
(cx-gui-do cx-activate-tab-index "Wall*Frame4" 0)
(cx-gui-do cx-activate-tab-index "Wall*Frame4*Frame8(Wall Film)*Frame1*Frame2" 0)
(cx-gui-do cx-activate-tab-index "Wall*Frame4*Frame8(Wall Film)*Frame1*Frame2" 1)
(cx-gui-do cx-activate-tab-index "Wall*Frame4*Frame8(Wall Film)*Frame1*Frame2" 0)
(cx-gui-do cx-activate-tab-index "Wall*Frame4*Frame8(Wall Film)*Frame1*Frame2" 2)
(cx-gui-do cx-activate-tab-index "Wall*Frame4*Frame8(Wall Film)*Frame1*Frame2" 0)
(cx-gui-do cx-activate-tab-index "Wall*Frame4*Frame8(Wall Film)*Frame1*Frame2" 3)
(cx-gui-do cx-activate-tab-index "Wall*Frame4*Frame8(Wall Film)*Frame1*Frame2" 0)
(cx-gui-do cx-activate-tab-index "Wall*Frame4*Frame8(Wall Film)*Frame1*Frame2" 4)
(cx-gui-do cx-activate-tab-index "Wall*Frame4*Frame8(Wall Film)*Frame1*Frame2" 0)
(cx-gui-do cx-activate-tab-index "Wall*Frame4*Frame8(Wall Film)*Frame1*Frame2" 5)
(cx-gui-do cx-activate-tab-index "Wall*Frame4*Frame8(Wall Film)*Frame1*Frame2" 0)
(cx-gui-do cx-activate-tab-index "Wall*Frame4*Frame8(Wall Film)*Frame1*Frame2" 6)
(cx-gui-do cx-activate-tab-index "Wall*Frame4*Frame8(Wall Film)*Frame1*Frame2" 0)
(cx-gui-do cx-activate-tab-index "Wall*Frame4" 1)
(cx-gui-do cx-activate-item "Wall*PanelButtons*PushButton2(Cancel)")
(cx-gui-do cx-set-list-tree-selections "NavigationPane*Frame2*Table1*List_Tree2" (list "Setup|Boundary Conditions|Wall|nozzle-volume-vacuum-shadow (wall, id=1)"))
(cx-gui-do cx-set-list-tree-selections "NavigationPane*Frame2*Table1*List_Tree2" (list "Setup|Boundary Conditions|Wall|nozzle-wall (wall, id=48)"))
(cx-gui-do cx-set-list-tree-selections "NavigationPane*Frame2*Table1*List_Tree2" (list "Setup|Boundary Conditions|Wall|nozzle-wall (wall, id=48)"))
(cx-gui-do cx-activate-item "NavigationPane*Frame2*Table1*List_Tree2")
(cx-gui-do cx-set-list-tree-selections "NavigationPane*Frame2*Table1*List_Tree2" (list "Setup|Boundary Conditions|Wall|nozzle-wall (wall, id=48)"))
(cx-gui-do cx-activate-tab-index "Wall*Frame4" 0)
(cx-gui-do cx-activate-tab-index "Wall*Frame4" 1)
(cx-gui-do cx-activate-tab-index "Wall*Frame4" 0)
(cx-gui-do cx-activate-tab-index "Wall*Frame4" 2)
(cx-gui-do cx-activate-tab-index "Wall*Frame4" 0)
(cx-gui-do cx-activate-tab-index "Wall*Frame4" 3)
(cx-gui-do cx-activate-tab-index "Wall*Frame4" 0)
(cx-gui-do cx-activate-tab-index "Wall*Frame4" 4)
(cx-gui-do cx-activate-tab-index "Wall*Frame4" 0)
(cx-gui-do cx-activate-tab-index "Wall*Frame4" 5)
(cx-gui-do cx-activate-tab-index "Wall*Frame4" 0)
(cx-gui-do cx-activate-tab-index "Wall*Frame4" 6)
(cx-gui-do cx-activate-tab-index "Wall*Frame4" 0)
(cx-gui-do cx-activate-tab-index "Wall*Frame4" 7)
(cx-gui-do cx-activate-tab-index "Wall*Frame4" 0)
(cx-gui-do cx-activate-tab-index "Wall*Frame4" 8)
(cx-gui-do cx-activate-tab-index "Wall*Frame4" 0)
(cx-gui-do cx-activate-tab-index "Wall*Frame4" 9)
(cx-gui-do cx-activate-tab-index "Wall*Frame4" 0)
(cx-gui-do cx-activate-tab-index "Wall*Frame4" 10)
(cx-gui-do cx-activate-tab-index "Wall*Frame4" 0)
(cx-gui-do cx-activate-tab-index "Wall*Frame4*Frame8(Wall Film)*Frame1*Frame2" 0)
(cx-gui-do cx-activate-tab-index "Wall*Frame4*Frame8(Wall Film)*Frame1*Frame2" 1)
(cx-gui-do cx-activate-tab-index "Wall*Frame4*Frame8(Wall Film)*Frame1*Frame2" 0)
(cx-gui-do cx-activate-tab-index "Wall*Frame4*Frame8(Wall Film)*Frame1*Frame2" 2)
(cx-gui-do cx-activate-tab-index "Wall*Frame4*Frame8(Wall Film)*Frame1*Frame2" 0)
(cx-gui-do cx-activate-tab-index "Wall*Frame4*Frame8(Wall Film)*Frame1*Frame2" 3)
(cx-gui-do cx-activate-tab-index "Wall*Frame4*Frame8(Wall Film)*Frame1*Frame2" 0)
(cx-gui-do cx-activate-tab-index "Wall*Frame4*Frame8(Wall Film)*Frame1*Frame2" 4)
(cx-gui-do cx-activate-tab-index "Wall*Frame4*Frame8(Wall Film)*Frame1*Frame2" 0)
(cx-gui-do cx-activate-tab-index "Wall*Frame4*Frame8(Wall Film)*Frame1*Frame2" 5)
(cx-gui-do cx-activate-tab-index "Wall*Frame4*Frame8(Wall Film)*Frame1*Frame2" 0)
(cx-gui-do cx-activate-tab-index "Wall*Frame4*Frame8(Wall Film)*Frame1*Frame2" 6)
(cx-gui-do cx-activate-tab-index "Wall*Frame4*Frame8(Wall Film)*Frame1*Frame2" 0)
(cx-gui-do cx-activate-tab-index "Wall*Frame4" 1)
(cx-gui-do cx-activate-item "Wall*PanelButtons*PushButton2(Cancel)")
(cx-gui-do cx-set-list-tree-selections "NavigationPane*Frame2*Table1*List_Tree2" (list "Setup|Boundary Conditions|Outlet|vacuum-boundaries (pressure-outlet, id=46)"))
(cx-gui-do cx-set-list-tree-selections "NavigationPane*Frame2*Table1*List_Tree2" (list "Setup|Boundary Conditions|Outlet|vacuum-boundaries (pressure-outlet, id=46)"))
(cx-gui-do cx-activate-item "NavigationPane*Frame2*Table1*List_Tree2")
(cx-gui-do cx-set-list-tree-selections "NavigationPane*Frame2*Table1*List_Tree2" (list "Setup|Boundary Conditions|Outlet|vacuum-boundaries (pressure-outlet, id=46)"))
(cx-gui-do cx-activate-tab-index "Pressure Outlet*Frame2*Frame2" 0)
(cx-gui-do cx-activate-tab-index "Pressure Outlet*Frame2*Frame2" 1)
(cx-gui-do cx-activate-tab-index "Pressure Outlet*Frame2*Frame2" 0)
(cx-gui-do cx-activate-tab-index "Pressure Outlet*Frame2*Frame2" 2)
(cx-gui-do cx-activate-tab-index "Pressure Outlet*Frame2*Frame2" 0)
(cx-gui-do cx-activate-tab-index "Pressure Outlet*Frame2*Frame2" 3)
(cx-gui-do cx-activate-tab-index "Pressure Outlet*Frame2*Frame2" 0)
(cx-gui-do cx-activate-tab-index "Pressure Outlet*Frame2*Frame2" 4)
(cx-gui-do cx-activate-tab-index "Pressure Outlet*Frame2*Frame2" 0)
(cx-gui-do cx-activate-tab-index "Pressure Outlet*Frame2*Frame2" 5)
(cx-gui-do cx-activate-tab-index "Pressure Outlet*Frame2*Frame2" 0)
(cx-gui-do cx-activate-tab-index "Pressure Outlet*Frame2*Frame2" 6)
(cx-gui-do cx-activate-tab-index "Pressure Outlet*Frame2*Frame2" 0)
(cx-gui-do cx-activate-tab-index "Pressure Outlet*Frame2*Frame2" 7)
(cx-gui-do cx-activate-tab-index "Pressure Outlet*Frame2*Frame2" 0)
(cx-gui-do cx-activate-tab-index "Pressure Outlet*Frame2*Frame2" 8)
(cx-gui-do cx-activate-tab-index "Pressure Outlet*Frame2*Frame2" 0)
(cx-gui-do cx-enable-apply-button "Pressure Outlet")
(cx-gui-do cx-set-expression-entry "Pressure Outlet*Frame2*Frame2*Frame1(Momentum)*Table1*Table7*ExpressionEntry1(Gauge Pressure)" '("1" . 0))
(cx-gui-do cx-activate-tab-index "Pressure Outlet*Frame2*Frame2" 1)
(cx-gui-do cx-activate-tab-index "Pressure Outlet*Frame2*Frame2" 0)
(cx-gui-do cx-set-toggle-button2 "Pressure Outlet*Frame2*Frame2*Frame1(Momentum)*Table1*CheckButton24(Target Mass Flow Rate)" #t)
(cx-gui-do cx-activate-item "Pressure Outlet*Frame2*Frame2*Frame1(Momentum)*Table1*CheckButton24(Target Mass Flow Rate)")
(cx-gui-do cx-set-toggle-button2 "Pressure Outlet*Frame2*Frame2*Frame1(Momentum)*Table1*CheckButton24(Target Mass Flow Rate)" #f)
(cx-gui-do cx-activate-item "Pressure Outlet*Frame2*Frame2*Frame1(Momentum)*Table1*CheckButton24(Target Mass Flow Rate)")
(cx-gui-do cx-activate-item "Pressure Outlet*PanelButtons*PushButton1(OK)")
(cx-gui-do cx-activate-item "Pressure Outlet*PanelButtons*PushButton2(Cancel)")
(cx-gui-do cx-set-list-tree-selections "NavigationPane*Frame2*Table1*List_Tree2" (list "Setup|Boundary Conditions"))
(cx-gui-do cx-list-tree-right-click "NavigationPane*Frame2*Table1*List_Tree2" )
(cx-gui-do cx-set-list-tree-selections "NavigationPane*Frame2*Table1*List_Tree2" (list "Setup|Boundary Conditions"))
(cx-gui-do cx-activate-item "NavigationPane*Frame2*Table1*List_Tree2")
(cx-gui-do cx-set-list-tree-selections "NavigationPane*Frame2*Table1*List_Tree2" (list "Setup|Boundary Conditions"))
(cx-gui-do cx-set-list-tree-selections "NavigationPane*Frame2*Table1*List_Tree2" (list "Setup|Boundary Conditions"))
(cx-gui-do cx-set-list-tree-selections "NavigationPane*Frame2*Table1*List_Tree2" (list "Setup|Boundary Conditions"))
(cx-gui-do cx-activate-item "NavigationPane*Frame2*Table1*List_Tree2")
(cx-gui-do cx-set-list-tree-selections "NavigationPane*Frame2*Table1*List_Tree2" (list "Setup|Boundary Conditions"))
(cx-gui-do cx-set-list-tree-selections "NavigationPane*Frame2*Table1*List_Tree2" (list "Setup|Boundary Conditions"))
(cx-gui-do cx-set-list-tree-selections "NavigationPane*Frame2*Table1*List_Tree2" (list "Setup|Boundary Conditions"))
(cx-gui-do cx-activate-item "NavigationPane*Frame2*Table1*List_Tree2")
(cx-gui-do cx-set-list-tree-selections "NavigationPane*Frame2*Table1*List_Tree2" (list "Setup|Boundary Conditions"))
(cx-gui-do cx-set-list-tree-selections "NavigationPane*Frame2*Table1*List_Tree2" (list "Setup|Boundary Conditions"))
(cx-gui-do cx-activate-item "Boundary Conditions*Table1*Table3*Table4*Table2*PushButton2(Operating Conditions)")
(cx-gui-do cx-set-expression-entry "Operating Conditions*Frame1*Table1(Pressure)*ExpressionEntry2(Operating Pressure)" '("0" . 0))
(cx-gui-do cx-activate-item "Operating Conditions*PanelButtons*PushButton1(OK)")
(cx-gui-do cx-set-list-tree-selections "NavigationPane*Frame2*Table1*List_Tree2" (list "Solution|Initialization"))
(cx-gui-do cx-set-list-tree-selections "NavigationPane*Frame2*Table1*List_Tree2" (list "Solution|Initialization"))
(cx-gui-do cx-set-list-tree-selections "NavigationPane*Frame2*Table1*List_Tree2" (list "Solution|Initialization"))
(cx-gui-do cx-activate-item "NavigationPane*Frame2*Table1*List_Tree2")
(cx-gui-do cx-set-list-tree-selections "NavigationPane*Frame2*Table1*List_Tree2" (list "Solution|Initialization"))
(cx-gui-do cx-set-toggle-button2 "Solution Initialization*Table1*ToggleBox3(Initialization Methods)*Standard Initialization" #t)
(cx-gui-do cx-activate-item "Solution Initialization*Table1*ToggleBox3(Initialization Methods)*Standard Initialization")
(cx-gui-do cx-set-list-selections "Solution Initialization*Table1*DropDownList1(Compute from)" '( 1))
(cx-gui-do cx-activate-item "Solution Initialization*Table1*DropDownList1(Compute from)")
(cx-gui-do cx-set-real-entry-list "Solution Initialization*Table1*Table7(Initial Values)*RealEntry3(Y Velocity)" '( 0))
(cx-gui-do cx-activate-item "Solution Initialization*Table1*Table7(Initial Values)*RealEntry3(Y Velocity)")
(cx-gui-do cx-set-real-entry-list "Solution Initialization*Table1*Table7(Initial Values)*RealEntry4(Z Velocity)" '( 0))
(cx-gui-do cx-activate-item "Solution Initialization*Table1*Table7(Initial Values)*RealEntry4(Z Velocity)")
(cx-gui-do cx-set-real-entry-list "Solution Initialization*Table1*Table7(Initial Values)*RealEntry2(X Velocity)" '( 0))
(cx-gui-do cx-activate-item "Solution Initialization*Table1*Table7(Initial Values)*RealEntry2(X Velocity)")
(cx-gui-do cx-activate-item "Solution Initialization*Table1*Frame9*PushButton1(Initialize)")
(cx-gui-do cx-activate-item "Solution Initialization*Table1*Frame9*PushButton1(Initialize)")
(cx-gui-do cx-activate-item "Question*Cancel")
(cx-gui-do cx-activate-item "Solution Initialization*Table1*Frame9*PushButton1(Initialize)")
(cx-gui-do cx-activate-item "Question*OK")
(cx-gui-do cx-activate-item "MenuBar*WriteSubMenu*Case & Data...")
(cx-gui-do cx-set-file-dialog-entries "Select File" '( "Nozzle_axial.cas.h5") "CFF Case/Data Files (*.cas.h5 *.dat.h5 )")

Writing to SimonAsusLaptop:"C:/Users/Simon/Projects/MEng Electronics/Development of a Resistojet Thruster/2) Simulations/CFD/Nozzle_axial.cas.h5" in NODE0 mode and compression level 1 ...
Grouping cells for Laplace smoothing ...
  Done.      487606 cells,     3 zones ...
     2290794 faces,    12 zones ...
     1431185 nodes,     1 zone  ...
  Done.

  Writing boundary layer flags ...
  Done.
Done.

Writing to SimonAsusLaptop:"C:/Users/Simon/Projects/MEng Electronics/Development of a Resistojet Thruster/2) Simulations/CFD/Nozzle_axial.dat.h5" in NODE0 mode and compression level 1 ...
  Writing results.
Done.
(cx-gui-do cx-activate-item "Ribbon*Frame1*Frame5(Solution)*Table1*Table3(Initialization)*PushButton6(Initialize)")
(cx-gui-do cx-activate-item "Ribbon*Frame1*Frame5(Solution)*Table1*Table3(Initialization)*PushButton6(Initialize)")
(cx-gui-do cx-activate-item "Question*OK")
(cx-gui-do cx-activate-item "Solution Initialization*Table1*Frame9*PushButton1(Initialize)")
(cx-gui-do cx-activate-item "Question*OK")
(cx-gui-do cx-activate-item "Ribbon*Frame1*Frame5(Solution)*Table1*PushButton1(Run Calculation)")
(cx-gui-do cx-set-integer-entry "Ribbon*Frame1*Frame5(Solution)*Table1*Table3(Run Calculation)*Table6*IntegerEntry16(No  of Iterations)" 500)
(cx-gui-do cx-activate-item "Ribbon*Frame1*Frame5(Solution)*Table1*Table3(Run Calculation)*Table6*IntegerEntry16(No  of Iterations)")
(cx-gui-do cx-activate-item "Ribbon*Frame1*Frame5(Solution)*Table1*Table3(Run Calculation)*PushButton9(Calculate)")


  iter  continuity  x-velocity  y-velocity  z-velocity      energy     time/iter
     1  0.0000e+00  1.0000e+00  1.0000e+00  1.0000e+00  1.0000e+00  0:50:21  499
     2  1.0000e+00  1.0000e+00  1.0000e+00  1.0000e+00  1.0000e+00  0:47:17  498
     3  6.0948e-01  5.1420e-01  5.2416e-01  5.2482e-01  5.6078e-01  0:42:32  497
     4  4.0582e-01  3.1174e-01  3.1983e-01  3.2026e-01  3.5908e-01  0:38:51  496
     5  2.5820e-01  1.9101e-01  1.9456e-01  1.9480e-01  2.2541e-01  0:35:43  495
     6  1.6029e-01  1.1533e-01  1.1595e-01  1.1611e-01  1.3894e-01  0:33:20  494
     7  1.0268e-01  6.8564e-02  6.8050e-02  6.8147e-02  8.6961e-02  0:31:36  493
     8  7.7151e-02  4.1624e-02  4.1815e-02  4.1933e-02  6.1349e-02  0:30:20  492
     9  7.0464e-02  2.7995e-02  2.8585e-02  2.8733e-02  5.1579e-02  0:29:10  491
    10  6.7868e-02  1.8791e-02  1.7906e-02  1.8016e-02  4.6746e-02  0:28:19  490
    11  7.4154e-02  1.1948e-02  9.5765e-03  9.6328e-03  4.9970e-02  0:27:13  489

  iter  continuity  x-velocity  y-velocity  z-velocity      energy     time/iter
    12  7.9873e-02  8.7825e-03  5.7521e-03  5.7736e-03  5.3790e-02  0:26:21  488
    13  8.7520e-02  8.0681e-03  4.7896e-03  4.7946e-03  5.9123e-02  0:25:46  487
    14  9.7412e-02  8.0642e-03  4.5528e-03  4.5497e-03  6.5979e-02  0:25:14  486
    15  1.0944e-01  8.2276e-03  4.5540e-03  4.5478e-03  7.4256e-02  0:24:40  485
    16  1.2355e-01  8.4361e-03  4.6852e-03  4.6794e-03  8.3921e-02  0:24:17  484
    17  1.3942e-01  8.6604e-03  4.8751e-03  4.8714e-03  9.4760e-02  0:23:59  483
    18  1.5680e-01  8.9118e-03  5.0946e-03  5.0926e-03  1.0661e-01  0:23:42  482
    19  1.7534e-01  9.2159e-03  5.3334e-03  5.3326e-03  1.1923e-01  0:23:28  481
    20  1.9468e-01  9.5821e-03  5.5842e-03  5.5843e-03  1.3239e-01  0:23:12  480
    21  2.1439e-01  1.0028e-02  5.8405e-03  5.8406e-03  1.4578e-01  0:22:57  479
    22  2.3409e-01  1.1120e-02  6.0957e-03  6.0946e-03  1.5916e-01  0:22:45  478

  iter  continuity  x-velocity  y-velocity  z-velocity      energy     time/iter
    23  2.5356e-01  1.2833e-02  6.3413e-03  6.3385e-03  1.7239e-01  0:22:28  477
    24  2.7278e-01  1.3642e-02  6.5732e-03  6.5670e-03  1.8543e-01  0:22:10  476
    25  2.9188e-01  2.9931e-02  6.7792e-03  6.7712e-03  1.9840e-01  0:21:54  475
    26  3.1120e-01  2.2560e-02  6.9848e-03  6.9775e-03  2.1152e-01  0:21:42  474
    27  3.3104e-01  1.9440e-02  7.1244e-03  7.1097e-03  2.2499e-01  0:21:24  473
    28  3.5171e-01  1.8808e-02  7.2466e-03  7.2353e-03  2.3903e-01  0:21:13  472
    29  3.7343e-01  2.0375e-02  7.3175e-03  7.3088e-03  2.5378e-01  0:21:06  471
    30  3.9628e-01  2.2387e-02  8.5306e-03  8.7380e-03  2.6929e-01  0:21:04  470
    31  4.2022e-01  2.4734e-02  1.1134e-02  1.1354e-02  2.8552e-01  0:21:12  469
    32  4.4505e-01  2.7466e-02  1.6627e-02  1.6647e-02  3.0235e-01  0:21:21  468
    33  4.7050e-01  3.0394e-02  2.1990e-02  2.0715e-02  3.1958e-01  0:21:41  467

  iter  continuity  x-velocity  y-velocity  z-velocity      energy     time/iter
    34  4.9631e-01  3.3549e-02  2.5581e-02  2.6636e-02  3.3703e-01  0:21:40  466
    35  5.2208e-01  3.7000e-02  2.7150e-02  2.6916e-02  3.5445e-01  0:21:38  465
    36  5.4750e-01  4.1037e-02  1.3812e-02  1.3792e-02  3.7162e-01  0:21:35  464
    37  5.7217e-01  4.3857e-02  8.8329e-03  8.8864e-03  3.8826e-01  0:21:33  463
    38  5.9588e-01  4.7223e-02  8.0309e-03  8.2076e-03  4.0424e-01  0:21:32  462
    39  6.1861e-01  5.0832e-02  8.3066e-03  8.5006e-03  4.1954e-01  0:21:34  461
    40  6.4024e-01  5.4595e-02  9.0857e-03  9.3363e-03  4.3408e-01  0:21:31  460
    41  6.6073e-01  5.8428e-02  1.0274e-02  1.0421e-02  4.4784e-01  0:21:34  459
    42  6.8023e-01  6.2363e-02  1.2227e-02  1.2088e-02  4.6091e-01  0:21:40  458
    43  6.9884e-01  6.6336e-02  1.2717e-02  1.2919e-02  4.7336e-01  0:21:42  457
    44  7.1665e-01  7.0369e-02  1.3193e-02  1.3567e-02  4.8526e-01  0:21:36  456

  iter  continuity  x-velocity  y-velocity  z-velocity      energy     time/iter
    45  7.3386e-01  7.4486e-02  1.3236e-02  1.3398e-02  4.9675e-01  0:21:32  455
    46  7.5043e-01  7.8720e-02  1.1797e-02  1.2004e-02  5.0781e-01  0:21:25  454
    47  7.6621e-01  8.3054e-02  1.2016e-02  1.2225e-02  5.1833e-01  0:21:19  453
    48  7.8143e-01  8.7532e-02  1.2747e-02  1.2918e-02  5.2847e-01  0:21:14  452
    49  7.9610e-01  9.2212e-02  1.3638e-02  1.3773e-02  5.3826e-01  0:21:09  451
    50  8.1001e-01  9.7088e-02  1.4605e-02  1.4657e-02  5.4755e-01  0:21:01  450
    51  8.2325e-01  1.0219e-01  1.5570e-02  1.5593e-02  5.5640e-01  0:20:53  449
    52  8.3599e-01  1.0756e-01  1.6555e-02  1.6491e-02  5.6495e-01  0:20:40  448
    53  8.4841e-01  1.1320e-01  1.7473e-02  1.7374e-02  5.7329e-01  0:20:31  447
    54  8.6080e-01  1.1917e-01  1.8502e-02  1.8332e-02  5.8165e-01  0:20:28  446
    55  8.7350e-01  1.2550e-01  1.9538e-02  1.9349e-02  5.9025e-01  0:20:21  445

  iter  continuity  x-velocity  y-velocity  z-velocity      energy     time/iter
    56  8.8675e-01  1.3223e-01  2.0537e-02  2.0307e-02  5.9924e-01  0:20:14  444
    57  9.0064e-01  1.3941e-01  2.1689e-02  2.1473e-02  6.0869e-01  0:20:06  443
    58  9.1510e-01  1.4702e-01  2.2783e-02  2.2608e-02  6.1856e-01  0:19:59  442
    59  9.3017e-01  1.5509e-01  2.3943e-02  2.3858e-02  6.2887e-01  0:19:55  441
    60  9.4576e-01  1.6362e-01  2.5190e-02  2.5222e-02  6.3955e-01  0:19:53  440
    61  9.6170e-01  1.7260e-01  2.6507e-02  2.6701e-02  6.5049e-01  0:20:50  439

 time step reduced in 4 cells due to excessive temperature change
    62  9.7773e-01  1.8200e-01  2.7907e-02  2.8297e-02  6.6149e-01  0:20:46  438
    63  9.9348e-01  1.9176e-01  2.9400e-02  3.0017e-02  6.7232e-01  0:20:48  437

 time step reduced in 1 cells due to excessive temperature change
    64  1.0085e+00  2.0178e-01  3.0990e-02  3.1856e-02  6.8267e-01  0:20:53  436

 time step reduced in 2 cells due to excessive temperature change
    65  1.0223e+00  2.1192e-01  3.2686e-02  3.3813e-02  6.9217e-01  0:21:03  435

 time step reduced in 4 cells due to excessive temperature change
    66  1.0343e+00  2.2205e-01  3.4492e-02  3.5884e-02  7.0042e-01  0:20:58  434

 time step reduced in 1 cells due to excessive temperature change

  iter  continuity  x-velocity  y-velocity  z-velocity      energy     time/iter
    67  1.0438e+00  2.3198e-01  3.6409e-02  3.8059e-02  7.0695e-01  0:20:50  433

 time step reduced in 10 cells due to excessive temperature change
    68  1.0501e+00  2.4149e-01  3.8421e-02  4.0313e-02  7.1126e-01  0:20:46  432

 time step reduced in 26 cells due to excessive temperature change
    69  1.0525e+00  2.5033e-01  4.0517e-02  4.2622e-02  7.1284e-01  0:20:41  431

 time step reduced in 9 cells due to excessive temperature change
    70  1.0502e+00  2.5828e-01  4.2677e-02  4.4957e-02  7.1117e-01  0:20:34  430

 time step reduced in 20 cells due to excessive temperature change
    71  1.0424e+00  2.6505e-01  4.4872e-02  4.7276e-02  7.0576e-01  0:20:33  429

 time step reduced in 19 cells due to excessive temperature change
    72  1.0286e+00  2.7036e-01  4.7070e-02  4.9541e-02  6.9609e-01  0:20:33  428

 time step reduced in 32 cells due to excessive temperature change
    73  1.0078e+00  2.7394e-01  4.9233e-02  5.1709e-02  6.8160e-01  0:20:33  427

 time step reduced in 31 cells due to excessive temperature change
    74  9.7925e-01  2.7554e-01  5.1322e-02  5.3734e-02  6.6171e-01  0:20:28  426

 time step reduced in 35 cells due to excessive temperature change
    75  9.4202e-01  2.7496e-01  5.3290e-02  5.5574e-02  6.3582e-01  0:20:23  425

 time step reduced in 28 cells due to excessive temperature change
    76  8.9569e-01  2.7203e-01  5.5080e-02  5.7181e-02  6.0365e-01  0:20:21  424

 time step reduced in 44 cells due to excessive temperature change
    77  8.4009e-01  2.6669e-01  5.6635e-02  5.8509e-02  5.6511e-01  0:20:20  423

 time step reduced in 48 cells due to excessive temperature change

  iter  continuity  x-velocity  y-velocity  z-velocity      energy     time/iter
    78  7.7555e-01  2.5897e-01  5.7894e-02  5.9501e-02  5.2043e-01  0:20:09  422

 time step reduced in 51 cells due to excessive temperature change
    79  7.0338e-01  2.4900e-01  5.8804e-02  6.0119e-02  4.7060e-01  0:19:55  421

 time step reduced in 61 cells due to excessive temperature change
    80  6.2587e-01  2.3699e-01  5.9329e-02  6.0344e-02  4.1725e-01  0:19:43  420

 time step reduced in 40 cells due to excessive temperature change
    81  5.4728e-01  2.2322e-01  5.9431e-02  6.0175e-02  3.6347e-01  0:19:36  419

 time step reduced in 66 cells due to excessive temperature change
    82  4.7443e-01  2.0816e-01  5.9078e-02  5.9601e-02  3.1422e-01  0:19:21  418

 time step reduced in 76 cells due to excessive temperature change
    83  4.1868e-01  1.9244e-01  5.8248e-02  5.8602e-02  2.7775e-01  0:19:08  417

 time step reduced in 67 cells due to excessive temperature change
    84  3.9522e-01  1.7701e-01  5.6951e-02  5.7246e-02  2.6472e-01  0:18:53  416

 time step reduced in 111 cells due to excessive temperature change
    85  4.1441e-01  1.6300e-01  5.5234e-02  5.5599e-02  2.8149e-01  0:18:39  415

 time step reduced in 104 cells due to excessive temperature change
    86  4.7128e-01  1.5162e-01  5.3179e-02  5.3688e-02  3.2338e-01  0:18:48  414

 time step reduced in 112 cells due to excessive temperature change
    87  5.5179e-01  1.4390e-01  5.0897e-02  5.1625e-02  3.8035e-01  0:19:13  413

 time step reduced in 107 cells due to excessive temperature change
    88  6.4295e-01  1.4047e-01  4.8515e-02  4.9558e-02  4.4368e-01  0:19:11  412

 time step reduced in 171 cells due to excessive temperature change

  iter  continuity  x-velocity  y-velocity  z-velocity      energy     time/iter
    89  7.3501e-01  1.4112e-01  4.6217e-02  4.7628e-02  5.0701e-01  0:19:02  411

 time step reduced in 101 cells due to excessive temperature change
    90  8.2058e-01  1.4503e-01  4.4146e-02  4.5905e-02  5.6558e-01  0:19:12  410

 time step reduced in 202 cells due to excessive temperature change
    91  8.9601e-01  1.5114e-01  4.2419e-02  4.4469e-02  6.1698e-01  0:19:33  409

 time step reduced in 139 cells due to excessive temperature change
    92  9.5977e-01  1.5829e-01  4.1136e-02  4.3472e-02  6.6016e-01  0:19:34  408

 time step reduced in 217 cells due to excessive temperature change
    93  1.0107e+00  1.6549e-01  4.0369e-02  4.2885e-02  6.9438e-01  0:19:30  407

 time step reduced in 143 cells due to excessive temperature change
    94  1.0462e+00  1.7178e-01  4.0193e-02  4.2749e-02  7.1797e-01  0:19:29  406

 time step reduced in 211 cells due to excessive temperature change
    95  1.0668e+00  1.7659e-01  4.0640e-02  4.3106e-02  7.3143e-01  0:19:29  405

 time step reduced in 128 cells due to excessive temperature change
    96  1.0715e+00  1.7956e-01  4.1560e-02  4.3869e-02  7.3401e-01  0:19:28  404

 time step reduced in 185 cells due to excessive temperature change
    97  1.0624e+00  1.8057e-01  4.2778e-02  4.4869e-02  7.2721e-01  0:19:34  403

 time step reduced in 136 cells due to excessive temperature change
    98  1.0416e+00  1.7971e-01  4.4119e-02  4.5940e-02  7.1230e-01  0:19:34  402

 time step reduced in 179 cells due to excessive temperature change
    99  1.0103e+00  1.7693e-01  4.5404e-02  4.6942e-02  6.9015e-01  0:19:42  401

 time step reduced in 188 cells due to excessive temperature change

  iter  continuity  x-velocity  y-velocity  z-velocity      energy     time/iter
   100  9.7176e-01  1.7234e-01  4.6470e-02  4.7736e-02  6.6299e-01  0:19:49  400

 time step reduced in 253 cells due to excessive temperature change
   101  9.2959e-01  1.6618e-01  4.7197e-02  4.8203e-02  6.3310e-01  0:19:43  399

 time step reduced in 238 cells due to excessive temperature change
   102  8.8705e-01  1.5878e-01  4.7492e-02  4.8276e-02  6.0268e-01  0:19:36  398

 time step reduced in 297 cells due to excessive temperature change
   103  8.4704e-01  1.5050e-01  4.7291e-02  4.7939e-02  5.7367e-01  0:19:22  397

 time step reduced in 263 cells due to excessive temperature change
   104  8.1198e-01  1.4218e-01  4.6523e-02  4.7092e-02  5.4776e-01  0:19:10  396

 time step reduced in 217 cells due to excessive temperature change
   105  7.8345e-01  1.3403e-01  4.5246e-02  4.5802e-02  5.2604e-01  0:18:58  395

 time step reduced in 192 cells due to excessive temperature change
   106  7.6214e-01  1.2631e-01  4.3521e-02  4.4187e-02  5.0906e-01  0:18:50  394

 time step reduced in 145 cells due to excessive temperature change
   107  7.4749e-01  1.1876e-01  4.1458e-02  4.2320e-02  4.9652e-01  0:18:43  393

 time step reduced in 64 cells due to excessive temperature change
   108  7.3855e-01  1.1189e-01  3.9129e-02  4.0313e-02  4.8788e-01  0:18:44  392

 time step reduced in 20 cells due to excessive temperature change
   109  7.3361e-01  1.0638e-01  3.6638e-02  3.8214e-02  4.8209e-01  0:19:37  391

 time step reduced in 2 cells due to excessive temperature change
   110  7.3103e-01  1.0230e-01  3.4097e-02  3.6103e-02  4.7809e-01  0:19:42  390

  iter  continuity  x-velocity  y-velocity  z-velocity      energy     time/iter
   111  7.2962e-01  9.9735e-02  3.1613e-02  3.4055e-02  4.7513e-01  0:19:24  389
   112  7.2804e-01  9.8956e-02  2.9276e-02  3.2151e-02  4.7231e-01  0:19:18  388
   113  7.2580e-01  1.0010e-01  2.7178e-02  3.0439e-02  4.6931e-01  0:18:53  387
   114  7.2250e-01  1.0303e-01  2.5382e-02  2.8925e-02  4.6586e-01  0:18:28  386
   115  7.1786e-01  1.0730e-01  2.3904e-02  2.7662e-02  4.6181e-01  0:18:05  385
   116  7.1210e-01  1.1250e-01  2.2740e-02  2.6640e-02  4.5726e-01  0:17:51  384

 Artificial walls on 10 faces (14.7% area) of pressure-inlet 42 to prevent fluid from flowing out of the boundary.
   117  7.0592e-01  1.1843e-01  2.1879e-02  2.5865e-02  4.5266e-01  0:17:36  383

 Artificial walls on 39 faces (12.8% area) of pressure-inlet 42 to prevent fluid from flowing out of the boundary.
   118  7.0086e-01  1.3233e-01  2.1367e-02  2.5480e-02  4.4932e-01  0:17:25  382

 Artificial walls on 97 faces (23.9% area) of pressure-inlet 42 to prevent fluid from flowing out of the boundary.
   119  6.9396e-01  1.3397e-01  2.0948e-02  2.5052e-02  4.4441e-01  0:17:14  381

 Artificial walls on 166 faces (35.7% area) of pressure-inlet 42 to prevent fluid from flowing out of the boundary.
   120  6.8843e-01  1.3827e-01  2.0741e-02  2.4905e-02  4.4067e-01  0:17:07  380

 Artificial walls on 242 faces (48.0% area) of pressure-inlet 42 to prevent fluid from flowing out of the boundary.

Divergence detected - temporarily reducing Courant number to 0.5
 and trying again...
   121  6.8409e-01  1.4322e-01  2.0711e-02  2.4981e-02  4.3783e-01  0:24:29  379

 Artificial walls on 248 faces (48.9% area) of pressure-inlet 42 to prevent fluid from flowing out of the boundary.

  iter  continuity  x-velocity  y-velocity  z-velocity      energy     time/iter
   122  6.8375e-01  1.4370e-01  2.0638e-02  2.4929e-02  4.3757e-01  0:22:58  378

 Artificial walls on 252 faces (49.6% area) of pressure-inlet 42 to prevent fluid from flowing out of the boundary.
   123  6.8347e-01  1.4422e-01  2.0591e-02  2.4904e-02  4.3736e-01  0:21:51  377

 Artificial walls on 259 faces (50.6% area) of pressure-inlet 42 to prevent fluid from flowing out of the boundary.
   124  6.8318e-01  1.4488e-01  2.0549e-02  2.4893e-02  4.3715e-01  0:21:00  376

 Artificial walls on 268 faces (52.0% area) of pressure-inlet 42 to prevent fluid from flowing out of the boundary.
   125  6.8291e-01  1.4573e-01  2.0509e-02  2.4893e-02  4.3697e-01  0:20:17  375

 Artificial walls on 279 faces (53.6% area) of pressure-inlet 42 to prevent fluid from flowing out of the boundary.
   126  6.8263e-01  1.4680e-01  2.0479e-02  2.4918e-02  4.3678e-01  0:19:39  374

 Artificial walls on 296 faces (56.1% area) of pressure-inlet 42 to prevent fluid from flowing out of the boundary.
   127  6.8237e-01  1.4812e-01  2.0470e-02  2.4979e-02  4.3662e-01  0:19:12  373

 Artificial walls on 318 faces (59.2% area) of pressure-inlet 42 to prevent fluid from flowing out of the boundary.
   128  6.8215e-01  1.4971e-01  2.0499e-02  2.5095e-02  4.3648e-01  0:18:45  372

 Artificial walls on 353 faces (63.9% area) of pressure-inlet 42 to prevent fluid from flowing out of the boundary.
   129  6.8193e-01  1.5159e-01  2.0593e-02  2.5301e-02  4.3634e-01  0:18:26  371

 Artificial walls on 391 faces (68.5% area) of pressure-inlet 42 to prevent fluid from flowing out of the boundary.
   130  6.8168e-01  1.5378e-01  2.0758e-02  2.5596e-02  4.3619e-01  0:18:09  370

 Artificial walls on 438 faces (71.7% area) of pressure-inlet 42 to prevent fluid from flowing out of the boundary.
   131  6.8149e-01  1.5627e-01  2.0979e-02  2.5967e-02  4.3604e-01  0:17:54  369

 Artificial walls on 502 faces (78.0% area) of pressure-inlet 42 to prevent fluid from flowing out of the boundary.
   132  6.8142e-01  1.5903e-01  2.1245e-02  2.6393e-02  4.3590e-01  0:17:42  368

 Artificial walls on 562 faces (85.3% area) of pressure-inlet 42 to prevent fluid from flowing out of the boundary.

  iter  continuity  x-velocity  y-velocity  z-velocity      energy     time/iter
   133  6.8111e-01  1.6190e-01  2.1567e-02  2.6873e-02  4.3546e-01  0:17:33  367

 Artificial walls on 595 faces (87.7% area) of pressure-inlet 42 to prevent fluid from flowing out of the boundary.
   134  6.7989e-01  1.6429e-01  2.1870e-02  2.7322e-02  4.3424e-01  0:17:23  366

 Artificial walls on 617 faces (96.8% area) of pressure-inlet 42 to prevent fluid from flowing out of the boundary.
   135  6.7786e-01  1.6597e-01  2.2149e-02  2.7722e-02  4.3234e-01  0:17:12  365

 Artificial walls on 617 faces (96.8% area) of pressure-inlet 42 to prevent fluid from flowing out of the boundary.
   136  6.7572e-01  1.6690e-01  2.2441e-02  2.8099e-02  4.3017e-01  0:17:07  364

 Artificial walls on 617 faces (96.8% area) of pressure-inlet 42 to prevent fluid from flowing out of the boundary.
   137  6.7371e-01  1.6715e-01  2.2765e-02  2.8443e-02  4.2788e-01  0:17:00  363

 Artificial walls on 618 faces (100.0% area) of pressure-inlet 42 to prevent fluid from flowing out of the boundary.
   138  6.7181e-01  1.6688e-01  2.3116e-02  2.8709e-02  4.2549e-01  0:16:57  362

 Artificial walls on 618 faces (100.0% area) of pressure-inlet 42 to prevent fluid from flowing out of the boundary.
   139  6.7075e-01  1.6618e-01  2.3441e-02  2.8807e-02  4.2345e-01  0:16:45  361

 Artificial walls on 618 faces (100.0% area) of pressure-inlet 42 to prevent fluid from flowing out of the boundary.
   140  6.7033e-01  1.6501e-01  2.3755e-02  2.8865e-02  4.2168e-01  0:16:34  360

 Artificial walls on 618 faces (100.0% area) of pressure-inlet 42 to prevent fluid from flowing out of the boundary.
   141  6.7051e-01  1.6337e-01  2.4077e-02  2.8903e-02  4.2020e-01  0:16:40  359

 Artificial walls on 618 faces (100.0% area) of pressure-inlet 42 to prevent fluid from flowing out of the boundary.
   142  6.7258e-01  1.6165e-01  2.4401e-02  2.8946e-02  4.1987e-01  0:16:31  358

 Artificial walls on 618 faces (100.0% area) of pressure-inlet 42 to prevent fluid from flowing out of the boundary.
   143  6.7664e-01  1.5989e-01  2.4714e-02  2.8972e-02  4.2080e-01  0:16:19  357

 Artificial walls on 618 faces (100.0% area) of pressure-inlet 42 to prevent fluid from flowing out of the boundary.

  iter  continuity  x-velocity  y-velocity  z-velocity      energy     time/iter
   144  6.8189e-01  1.5791e-01  2.4993e-02  2.8939e-02  4.2254e-01  0:16:08  356

 Artificial walls on 618 faces (100.0% area) of pressure-inlet 42 to prevent fluid from flowing out of the boundary.
   145  6.8798e-01  1.5528e-01  2.5231e-02  2.8869e-02  4.2481e-01  0:15:58  355

 Artificial walls on 618 faces (100.0% area) of pressure-inlet 42 to prevent fluid from flowing out of the boundary.
   146  6.9390e-01  1.5194e-01  2.5461e-02  2.8892e-02  4.2696e-01  0:15:58  354

 Artificial walls on 618 faces (100.0% area) of pressure-inlet 42 to prevent fluid from flowing out of the boundary.
   147  6.9810e-01  1.4807e-01  2.5684e-02  2.9002e-02  4.2807e-01  0:15:55  353

 Artificial walls on 618 faces (100.0% area) of pressure-inlet 42 to prevent fluid from flowing out of the boundary.
   148  7.0363e-01  1.4398e-01  2.5973e-02  2.9268e-02  4.3025e-01  0:16:04  352

 Artificial walls on 618 faces (100.0% area) of pressure-inlet 42 to prevent fluid from flowing out of the boundary.
   149  7.1319e-01  1.3975e-01  2.6446e-02  2.9729e-02  4.3514e-01  0:15:55  351

 Artificial walls on 618 faces (100.0% area) of pressure-inlet 42 to prevent fluid from flowing out of the boundary.
   150  7.2639e-01  1.3500e-01  2.7217e-02  3.0449e-02  4.4240e-01  0:15:45  350

 Artificial walls on 618 faces (100.0% area) of pressure-inlet 42 to prevent fluid from flowing out of the boundary.
   151  7.5040e-01  1.3013e-01  2.8418e-02  3.1612e-02  4.5659e-01  0:15:41  349

 Artificial walls on 618 faces (100.0% area) of pressure-inlet 42 to prevent fluid from flowing out of the boundary.
   152  7.9889e-01  1.2679e-01  3.0100e-02  3.3303e-02  4.8630e-01  0:15:41  348

 Artificial walls on 618 faces (100.0% area) of pressure-inlet 42 to prevent fluid from flowing out of the boundary.
   153  8.8447e-01  1.2744e-01  3.2242e-02  3.5409e-02  5.3947e-01  0:15:41  347

 Artificial walls on 618 faces (100.0% area) of pressure-inlet 42 to prevent fluid from flowing out of the boundary.
   154  1.0138e+00  1.3420e-01  3.4682e-02  3.7719e-02  6.2021e-01  0:15:42  346

 Artificial walls on 618 faces (100.0% area) of pressure-inlet 42 to prevent fluid from flowing out of the boundary.

 time step reduced in 1 cells due to excessive temperature change

  iter  continuity  x-velocity  y-velocity  z-velocity      energy     time/iter
   155  1.1848e+00  1.4833e-01  3.7242e-02  3.9990e-02  7.2717e-01  0:15:41  345

 Artificial walls on 618 faces (100.0% area) of pressure-inlet 42 to prevent fluid from flowing out of the boundary.

 time step reduced in 1 cells due to excessive temperature change
   156  1.3872e+00  1.6932e-01  3.9717e-02  4.2021e-02  8.5398e-01  0:15:42  344

 Artificial walls on 618 faces (100.0% area) of pressure-inlet 42 to prevent fluid from flowing out of the boundary.
   157  1.6075e+00  1.9563e-01  4.2085e-02  4.3860e-02  9.9237e-01  0:15:43  343

 Artificial walls on 618 faces (100.0% area) of pressure-inlet 42 to prevent fluid from flowing out of the boundary.

 time step reduced in 41 cells due to excessive temperature change
   158  1.8303e+00  2.2493e-01  4.4352e-02  4.5580e-02  1.1328e+00  0:15:43  342

 Artificial walls on 618 faces (100.0% area) of pressure-inlet 42 to prevent fluid from flowing out of the boundary.

 time step reduced in 8 cells due to excessive temperature change
   159  2.0372e+00  2.5476e-01  4.6650e-02  4.7318e-02  1.2640e+00  0:15:39  341

 Artificial walls on 618 faces (100.0% area) of pressure-inlet 42 to prevent fluid from flowing out of the boundary.

 time step reduced in 23 cells due to excessive temperature change
   160  2.2156e+00  2.8330e-01  4.9134e-02  4.9365e-02  1.3782e+00  0:15:44  340

 Artificial walls on 618 faces (100.0% area) of pressure-inlet 42 to prevent fluid from flowing out of the boundary.

 time step reduced in 51 cells due to excessive temperature change
   161  2.3541e+00  3.0891e-01  5.2014e-02  5.1701e-02  1.4681e+00  0:15:38  339

 Artificial walls on 618 faces (100.0% area) of pressure-inlet 42 to prevent fluid from flowing out of the boundary.

 time step reduced in 1 cells due to excessive temperature change
   162  2.4375e+00  3.3025e-01  5.5476e-02  5.4678e-02  1.5244e+00  0:15:37  338

 Artificial walls on 618 faces (100.0% area) of pressure-inlet 42 to prevent fluid from flowing out of the boundary.

 time step reduced in 37 cells due to excessive temperature change
   163  2.4590e+00  3.4698e-01  5.9489e-02  5.8605e-02  1.5430e+00  0:15:33  337

 Artificial walls on 618 faces (100.0% area) of pressure-inlet 42 to prevent fluid from flowing out of the boundary.

 time step reduced in 35 cells due to excessive temperature change
   164  2.4329e+00  3.5968e-01  6.4143e-02  6.3110e-02  1.5318e+00  0:15:33  336

 Artificial walls on 618 faces (100.0% area) of pressure-inlet 42 to prevent fluid from flowing out of the boundary.

 time step reduced in 6 cells due to excessive temperature change
   165  2.3721e+00  3.6860e-01  6.9194e-02  6.7975e-02  1.4984e+00  0:15:30  335

 Artificial walls on 618 faces (100.0% area) of pressure-inlet 42 to prevent fluid from flowing out of the boundary.

 time step reduced in 80 cells due to excessive temperature change

  iter  continuity  x-velocity  y-velocity  z-velocity      energy     time/iter
   166  2.2834e+00  3.7362e-01  7.4210e-02  7.2886e-02  1.4462e+00  0:15:26  334

 Artificial walls on 618 faces (100.0% area) of pressure-inlet 42 to prevent fluid from flowing out of the boundary.
   167  2.1655e+00  3.7395e-01  7.8932e-02  7.7815e-02  1.3743e+00  0:15:25  333

 Artificial walls on 618 faces (100.0% area) of pressure-inlet 42 to prevent fluid from flowing out of the boundary.

 time step reduced in 18 cells due to excessive temperature change
   168  2.0223e+00  3.6895e-01  8.3246e-02  8.2469e-02  1.2848e+00  0:16:04  332

 Artificial walls on 618 faces (100.0% area) of pressure-inlet 42 to prevent fluid from flowing out of the boundary.

 time step reduced in 51 cells due to excessive temperature change
   169  1.8606e+00  3.5801e-01  8.6941e-02  8.6472e-02  1.1817e+00  0:15:51  331

 Artificial walls on 618 faces (100.0% area) of pressure-inlet 42 to prevent fluid from flowing out of the boundary.
   170  1.6779e+00  3.4102e-01  8.9815e-02  8.9633e-02  1.0638e+00  0:15:35  330

 Artificial walls on 618 faces (100.0% area) of pressure-inlet 42 to prevent fluid from flowing out of the boundary.

 time step reduced in 49 cells due to excessive temperature change
   171  1.4691e+00  3.1847e-01  9.1530e-02  9.1695e-02  9.2848e-01  0:15:23  329

 Artificial walls on 618 faces (100.0% area) of pressure-inlet 42 to prevent fluid from flowing out of the boundary.

 time step reduced in 18 cells due to excessive temperature change
   172  1.2455e+00  2.9124e-01  9.1757e-02  9.2251e-02  7.8279e-01  0:15:07  328

 Artificial walls on 618 faces (100.0% area) of pressure-inlet 42 to prevent fluid from flowing out of the boundary.
   173  1.0243e+00  2.6134e-01  9.0402e-02  9.1226e-02  6.3768e-01  0:14:55  327

 Artificial walls on 618 faces (100.0% area) of pressure-inlet 42 to prevent fluid from flowing out of the boundary.

 time step reduced in 24 cells due to excessive temperature change
   174  8.2640e-01  2.3082e-01  8.7523e-02  8.8669e-02  5.0710e-01  0:14:44  326

 Artificial walls on 618 faces (100.0% area) of pressure-inlet 42 to prevent fluid from flowing out of the boundary.
   175  6.7880e-01  2.0283e-01  8.3359e-02  8.4835e-02  4.1017e-01  0:14:38  325

 Artificial walls on 618 faces (100.0% area) of pressure-inlet 42 to prevent fluid from flowing out of the boundary.
   176  6.1989e-01  1.8066e-01  7.8309e-02  8.0055e-02  3.7470e-01  0:14:27  324

 Artificial walls on 618 faces (100.0% area) of pressure-inlet 42 to prevent fluid from flowing out of the boundary.

  iter  continuity  x-velocity  y-velocity  z-velocity      energy     time/iter
   177  6.5798e-01  1.6713e-01  7.2795e-02  7.4727e-02  4.0610e-01  0:14:18  323

 Artificial walls on 618 faces (100.0% area) of pressure-inlet 42 to prevent fluid from flowing out of the boundary.
   178  7.5584e-01  1.6303e-01  6.7244e-02  6.9264e-02  4.7631e-01  0:14:11  322

 Artificial walls on 618 faces (100.0% area) of pressure-inlet 42 to prevent fluid from flowing out of the boundary.
   179  8.7463e-01  1.6692e-01  6.1956e-02  6.3968e-02  5.5824e-01  0:14:05  321

 Artificial walls on 618 faces (100.0% area) of pressure-inlet 42 to prevent fluid from flowing out of the boundary.

 time step reduced in 7 cells due to excessive temperature change
   180  9.9431e-01  1.7602e-01  5.7186e-02  5.9154e-02  6.3876e-01  0:14:02  320

 Artificial walls on 618 faces (100.0% area) of pressure-inlet 42 to prevent fluid from flowing out of the boundary.
   181  1.0989e+00  1.8704e-01  5.3199e-02  5.5027e-02  7.0802e-01  0:14:00  319

 Artificial walls on 618 faces (100.0% area) of pressure-inlet 42 to prevent fluid from flowing out of the boundary.
   182  1.1800e+00  1.9747e-01  5.0135e-02  5.1747e-02  7.6124e-01  0:14:02  318

 Artificial walls on 618 faces (100.0% area) of pressure-inlet 42 to prevent fluid from flowing out of the boundary.
   183  1.2399e+00  2.0623e-01  4.7821e-02  4.9168e-02  8.0001e-01  0:14:08  317

 Artificial walls on 618 faces (100.0% area) of pressure-inlet 42 to prevent fluid from flowing out of the boundary.
   184  1.2785e+00  2.1273e-01  4.6073e-02  4.7140e-02  8.2441e-01  0:14:15  316

 Artificial walls on 618 faces (100.0% area) of pressure-inlet 42 to prevent fluid from flowing out of the boundary.
   185  1.2950e+00  2.1610e-01  4.4802e-02  4.5650e-02  8.3418e-01  0:14:15  315

 Artificial walls on 618 faces (100.0% area) of pressure-inlet 42 to prevent fluid from flowing out of the boundary.
   186  1.2922e+00  2.1587e-01  4.3817e-02  4.4505e-02  8.3124e-01  0:14:18  314

 Artificial walls on 618 faces (100.0% area) of pressure-inlet 42 to prevent fluid from flowing out of the boundary.
   187  1.2722e+00  2.1216e-01  4.3036e-02  4.3578e-02  8.1711e-01  0:14:17  313

 Artificial walls on 618 faces (100.0% area) of pressure-inlet 42 to prevent fluid from flowing out of the boundary.

  iter  continuity  x-velocity  y-velocity  z-velocity      energy     time/iter
   188  1.2390e+00  2.0588e-01  4.2363e-02  4.2773e-02  7.9428e-01  0:14:17  312

 Artificial walls on 618 faces (100.0% area) of pressure-inlet 42 to prevent fluid from flowing out of the boundary.
   189  1.1962e+00  1.9748e-01  4.1742e-02  4.2086e-02  7.6513e-01  0:14:16  311

 Artificial walls on 618 faces (100.0% area) of pressure-inlet 42 to prevent fluid from flowing out of the boundary.
   190  1.1458e+00  1.8678e-01  4.1217e-02  4.1543e-02  7.3096e-01  0:14:14  310

 Artificial walls on 618 faces (100.0% area) of pressure-inlet 42 to prevent fluid from flowing out of the boundary.
   191  1.0911e+00  1.7453e-01  4.0694e-02  4.1060e-02  6.9394e-01  0:14:12  309

 Artificial walls on 618 faces (100.0% area) of pressure-inlet 42 to prevent fluid from flowing out of the boundary.
   192  1.0358e+00  1.6126e-01  4.0098e-02  4.0573e-02  6.5634e-01  0:14:13  308

 Artificial walls on 618 faces (100.0% area) of pressure-inlet 42 to prevent fluid from flowing out of the boundary.
   193  9.8219e-01  1.4776e-01  3.9327e-02  3.9993e-02  6.1956e-01  0:14:22  307

 Artificial walls on 618 faces (100.0% area) of pressure-inlet 42 to prevent fluid from flowing out of the boundary.
   194  9.3195e-01  1.3446e-01  3.8343e-02  3.9264e-02  5.8479e-01  0:14:31  306

 Artificial walls on 618 faces (100.0% area) of pressure-inlet 42 to prevent fluid from flowing out of the boundary.
   195  8.8698e-01  1.2205e-01  3.7067e-02  3.8318e-02  5.5322e-01  0:14:26  305

 Artificial walls on 618 faces (100.0% area) of pressure-inlet 42 to prevent fluid from flowing out of the boundary.
   196  8.4810e-01  1.1088e-01  3.5459e-02  3.7130e-02  5.2545e-01  0:14:20  304

 Artificial walls on 618 faces (100.0% area) of pressure-inlet 42 to prevent fluid from flowing out of the boundary.
   197  8.1547e-01  1.0115e-01  3.3558e-02  3.5737e-02  5.0165e-01  0:14:14  303

 Artificial walls on 618 faces (100.0% area) of pressure-inlet 42 to prevent fluid from flowing out of the boundary.
   198  7.8886e-01  9.3021e-02  3.1403e-02  3.4133e-02  4.8179e-01  0:14:08  302

 Artificial walls on 618 faces (100.0% area) of pressure-inlet 42 to prevent fluid from flowing out of the boundary.

  iter  continuity  x-velocity  y-velocity  z-velocity      energy     time/iter
   199  7.6745e-01  8.6457e-02  2.9075e-02  3.2362e-02  4.6543e-01  0:14:05  301

 Artificial walls on 618 faces (100.0% area) of pressure-inlet 42 to prevent fluid from flowing out of the boundary.
   200  7.5061e-01  8.1353e-02  2.6652e-02  3.0491e-02  4.5224e-01  0:14:00  300

 Artificial walls on 618 faces (100.0% area) of pressure-inlet 42 to prevent fluid from flowing out of the boundary.
   201  7.3737e-01  7.7493e-02  2.4244e-02  2.8560e-02  4.4166e-01  0:13:56  299

 Artificial walls on 618 faces (100.0% area) of pressure-inlet 42 to prevent fluid from flowing out of the boundary.
   202  7.2649e-01  7.4623e-02  2.1957e-02  2.6625e-02  4.3296e-01  0:13:48  298

 Artificial walls on 618 faces (100.0% area) of pressure-inlet 42 to prevent fluid from flowing out of the boundary.
   203  7.1714e-01  7.2503e-02  1.9895e-02  2.4724e-02  4.2562e-01  0:13:49  297

 Artificial walls on 618 faces (100.0% area) of pressure-inlet 42 to prevent fluid from flowing out of the boundary.
   204  7.0848e-01  7.0875e-02  1.8160e-02  2.2898e-02  4.1911e-01  0:13:50  296

 Artificial walls on 618 faces (100.0% area) of pressure-inlet 42 to prevent fluid from flowing out of the boundary.
   205  6.9951e-01  6.9578e-02  1.6825e-02  2.1214e-02  4.1276e-01  0:13:52  295

 Artificial walls on 618 faces (100.0% area) of pressure-inlet 42 to prevent fluid from flowing out of the boundary.
   206  6.8951e-01  6.8476e-02  1.5941e-02  1.9733e-02  4.0610e-01  0:13:48  294

 Artificial walls on 618 faces (100.0% area) of pressure-inlet 42 to prevent fluid from flowing out of the boundary.
   207  6.7756e-01  6.7422e-02  1.5489e-02  1.8484e-02  3.9853e-01  0:13:32  293

 Artificial walls on 618 faces (100.0% area) of pressure-inlet 42 to prevent fluid from flowing out of the boundary.
   208  6.6337e-01  6.6323e-02  1.5401e-02  1.7530e-02  3.8981e-01  0:13:20  292

 Artificial walls on 618 faces (100.0% area) of pressure-inlet 42 to prevent fluid from flowing out of the boundary.
   209  6.4744e-01  6.5105e-02  1.5586e-02  1.6929e-02  3.8023e-01  0:13:11  291

 Artificial walls on 618 faces (100.0% area) of pressure-inlet 42 to prevent fluid from flowing out of the boundary.

  iter  continuity  x-velocity  y-velocity  z-velocity      energy     time/iter
   210  6.3111e-01  6.3746e-02  1.5909e-02  1.6638e-02  3.7059e-01  0:12:58  290

 Artificial walls on 618 faces (100.0% area) of pressure-inlet 42 to prevent fluid from flowing out of the boundary.
   211  6.1610e-01  6.2232e-02  1.6251e-02  1.6588e-02  3.6191e-01  0:12:49  289

 Artificial walls on 618 faces (100.0% area) of pressure-inlet 42 to prevent fluid from flowing out of the boundary.
   212  6.0366e-01  6.0534e-02  1.6507e-02  1.6682e-02  3.5492e-01  0:12:48  288

 Artificial walls on 618 faces (100.0% area) of pressure-inlet 42 to prevent fluid from flowing out of the boundary.
   213  5.9419e-01  5.8616e-02  1.6626e-02  1.6836e-02  3.4982e-01  0:12:54  287

 Artificial walls on 618 faces (100.0% area) of pressure-inlet 42 to prevent fluid from flowing out of the boundary.
   214  5.8736e-01  5.6476e-02  1.6577e-02  1.6972e-02  3.4636e-01  0:12:58  286

 Artificial walls on 618 faces (100.0% area) of pressure-inlet 42 to prevent fluid from flowing out of the boundary.
   215  5.8247e-01  5.4170e-02  1.6331e-02  1.7022e-02  3.4408e-01  0:13:00  285

 Artificial walls on 618 faces (100.0% area) of pressure-inlet 42 to prevent fluid from flowing out of the boundary.
   216  5.7928e-01  5.1849e-02  1.5887e-02  1.6919e-02  3.4279e-01  0:13:01  284

 Artificial walls on 618 faces (100.0% area) of pressure-inlet 42 to prevent fluid from flowing out of the boundary.
   217  5.7748e-01  4.9692e-02  1.5272e-02  1.6650e-02  3.4227e-01  0:13:01  283

 Artificial walls on 618 faces (100.0% area) of pressure-inlet 42 to prevent fluid from flowing out of the boundary.
   218  5.7611e-01  4.7809e-02  1.4525e-02  1.6208e-02  3.4192e-01  0:12:58  282

 Artificial walls on 618 faces (100.0% area) of pressure-inlet 42 to prevent fluid from flowing out of the boundary.
   219  5.7489e-01  4.6267e-02  1.3702e-02  1.5611e-02  3.4156e-01  0:12:55  281

 Artificial walls on 618 faces (100.0% area) of pressure-inlet 42 to prevent fluid from flowing out of the boundary.
Absolute pressure limited to 1.000000e+00 in 19 cells during the last 11 iterations
   220  5.7434e-01  4.5152e-02  1.2858e-02  1.4886e-02  3.4151e-01  0:12:58  280

[...]
  1727  9.2201e-03  2.7915e-03  7.5448e-04  8.0848e-04  2.8558e-03  0:14:06  272

 Artificial walls on 618 faces (100.0% area) of pressure-inlet 42 to prevent fluid from flowing out of the boundary.

 absolute pressure limited to 1.000000e+00 in 286421 cells on zone 2297 
  1728  9.1560e-03  2.7709e-03  7.4336e-04  8.1082e-04  2.8178e-03  0:14:07  271

 Artificial walls on 618 faces (100.0% area) of pressure-inlet 42 to prevent fluid from flowing out of the boundary.

 absolute pressure limited to 1.000000e+00 in 286421 cells on zone 2297 
  1729  9.1062e-03  2.7584e-03  7.3261e-04  8.1297e-04  2.7897e-03  0:14:03  270

 Artificial walls on 618 faces (100.0% area) of pressure-inlet 42 to prevent fluid from flowing out of the boundary.

 absolute pressure limited to 1.000000e+00 in 286421 cells on zone 2297 

  iter  continuity  x-velocity  y-velocity  z-velocity      energy     time/iter
  1730  9.0738e-03  2.7560e-03  7.2295e-04  8.1489e-04  2.7736e-03  0:13:57  269

 Artificial walls on 618 faces (100.0% area) of pressure-inlet 42 to prevent fluid from flowing out of the boundary.

 absolute pressure limited to 1.000000e+00 in 286421 cells on zone 2297 
  1731  9.0606e-03  2.7651e-03  7.1513e-04  8.1660e-04  2.7702e-03  0:14:56  268

 Artificial walls on 618 faces (100.0% area) of pressure-inlet 42 to prevent fluid from flowing out of the boundary.

 absolute pressure limited to 1.000000e+00 in 286421 cells on zone 2297 
  1732  9.0668e-03  2.7860e-03  7.0978e-04  8.1812e-04  2.7795e-03  0:15:19  267

 Artificial walls on 618 faces (100.0% area) of pressure-inlet 42 to prevent fluid from flowing out of the boundary.

 absolute pressure limited to 1.000000e+00 in 286421 cells on zone 2297 
  1733  9.0915e-03  2.8175e-03  7.0755e-04  8.1952e-04  2.7996e-03  0:15:36  266

 Artificial walls on 618 faces (100.0% area) of pressure-inlet 42 to prevent fluid from flowing out of the boundary.

 absolute pressure limited to 1.000000e+00 in 286421 cells on zone 2297 
  1734  9.1322e-03  2.8575e-03  7.0905e-04  8.2091e-04  2.8274e-03  0:15:55  265

 Artificial walls on 618 faces (100.0% area) of pressure-inlet 42 to prevent fluid from flowing out of the boundary.

 absolute pressure limited to 1.000000e+00 in 286421 cells on zone 2297 
  1735  9.1855e-03  2.9031e-03  7.1450e-04  8.2241e-04  2.8591e-03  0:16:08  264

 Artificial walls on 618 faces (100.0% area) of pressure-inlet 42 to prevent fluid from flowing out of the boundary.

 absolute pressure limited to 1.000000e+00 in 286420 cells on zone 2297 
  1736  9.2466e-03  2.9512e-03  7.2378e-04  8.2423e-04  2.8919e-03  0:16:18  263

 Artificial walls on 618 faces (100.0% area) of pressure-inlet 42 to prevent fluid from flowing out of the boundary.

 absolute pressure limited to 1.000000e+00 in 286420 cells on zone 2297 
  1737  9.3112e-03  2.9986e-03  7.3652e-04  8.2656e-04  2.9208e-03  0:16:13  262

 Artificial walls on 618 faces (100.0% area) of pressure-inlet 42 to prevent fluid from flowing out of the boundary.
Absolute pressure limited to 1.000000e+00 in 3150630 cells during the last 11 iterations

 absolute pressure limited to 1.000000e+00 in 286420 cells on zone 2297 
  1738  9.3752e-03  3.0422e-03  7.5219e-04  8.2953e-04  2.9446e-03  0:16:01  261

 Artificial walls on 618 faces (100.0% area) of pressure-inlet 42 to prevent fluid from flowing out of the boundary.

 absolute pressure limited to 1.000000e+00 in 286419 cells on zone 2297 
  1739  9.4353e-03  3.0799e-03  7.7013e-04  8.3341e-04  2.9607e-03  0:15:52  260

 Artificial walls on 618 faces (100.0% area) of pressure-inlet 42 to prevent fluid from flowing out of the boundary.

 absolute pressure limited to 1.000000e+00 in 286420 cells on zone 2297 
  1740  9.4895e-03  3.1105e-03  7.8964e-04  8.3844e-04  2.9693e-03  0:16:07  259

 Artificial walls on 618 faces (100.0% area) of pressure-inlet 42 to prevent fluid from flowing out of the boundary.

 absolute pressure limited to 1.000000e+00 in 286421 cells on zone 2297 

  iter  continuity  x-velocity  y-velocity  z-velocity      energy     time/iter
  1741  9.5368e-03  3.1334e-03  8.0995e-04  8.4481e-04  2.9700e-03  0:16:06  258

 Artificial walls on 618 faces (100.0% area) of pressure-inlet 42 to prevent fluid from flowing out of the boundary.

 absolute pressure limited to 1.000000e+00 in 286421 cells on zone 2297 
  1742  9.5770e-03  3.1488e-03  8.3047e-04  8.5269e-04  2.9631e-03  0:16:15  257

 Artificial walls on 618 faces (100.0% area) of pressure-inlet 42 to prevent fluid from flowing out of the boundary.

 absolute pressure limited to 1.000000e+00 in 286421 cells on zone 2297 
  1743  9.6110e-03  3.1573e-03  8.5074e-04  8.6231e-04  2.9515e-03  0:16:01  256

 Artificial walls on 618 faces (100.0% area) of pressure-inlet 42 to prevent fluid from flowing out of the boundary.

 absolute pressure limited to 1.000000e+00 in 286421 cells on zone 2297 
  1744  9.6404e-03  3.1603e-03  8.7050e-04  8.7395e-04  2.9393e-03  0:15:48  255

 Artificial walls on 618 faces (100.0% area) of pressure-inlet 42 to prevent fluid from flowing out of the boundary.

 absolute pressure limited to 1.000000e+00 in 286421 cells on zone 2297 
  1745  9.6675e-03  3.1595e-03  8.8959e-04  8.8776e-04  2.9298e-03  0:15:31  254

 Artificial walls on 618 faces (100.0% area) of pressure-inlet 42 to prevent fluid from flowing out of the boundary.

 absolute pressure limited to 1.000000e+00 in 286421 cells on zone 2297 
  1746  9.6952e-03  3.1571e-03  9.0801e-04  9.0373e-04  2.9257e-03  0:15:20  253

 Artificial walls on 618 faces (100.0% area) of pressure-inlet 42 to prevent fluid from flowing out of the boundary.

 absolute pressure limited to 1.000000e+00 in 286421 cells on zone 2297 
  1747  9.7255e-03  3.1548e-03  9.2589e-04  9.2192e-04  2.9294e-03  0:14:53  252

 Artificial walls on 618 faces (100.0% area) of pressure-inlet 42 to prevent fluid from flowing out of the boundary.

 absolute pressure limited to 1.000000e+00 in 286421 cells on zone 2297 
  1748  9.7600e-03  3.1536e-03  9.4348e-04  9.4235e-04  2.9439e-03  0:14:23  251

 Artificial walls on 618 faces (100.0% area) of pressure-inlet 42 to prevent fluid from flowing out of the boundary.
Absolute pressure limited to 1.000000e+00 in 3150630 cells during the last 11 iterations

 absolute pressure limited to 1.000000e+00 in 286421 cells on zone 2297 
  1749  9.8000e-03  3.1548e-03  9.6110e-04  9.6498e-04  2.9709e-03  0:13:58  250

 Artificial walls on 618 faces (100.0% area) of pressure-inlet 42 to prevent fluid from flowing out of the boundary.

 absolute pressure limited to 1.000000e+00 in 286421 cells on zone 2297 
  1750  9.8458e-03  3.1582e-03  9.7909e-04  9.8972e-04  3.0090e-03  0:13:40  249

 Artificial walls on 618 faces (100.0% area) of pressure-inlet 42 to prevent fluid from flowing out of the boundary.

 absolute pressure limited to 1.000000e+00 in 286422 cells on zone 2297 
  1751  9.8968e-03  3.1637e-03  9.9771e-04  1.0164e-03  3.0553e-03  0:13:20  248

 Artificial walls on 618 faces (100.0% area) of pressure-inlet 42 to prevent fluid from flowing out of the boundary.

 absolute pressure limited to 1.000000e+00 in 286422 cells on zone 2297 

  iter  continuity  x-velocity  y-velocity  z-velocity      energy     time/iter
  1752  9.9519e-03  3.1703e-03  1.0172e-03  1.0448e-03  3.1085e-03  0:13:15  247

 Artificial walls on 618 faces (100.0% area) of pressure-inlet 42 to prevent fluid from flowing out of the boundary.

 absolute pressure limited to 1.000000e+00 in 286422 cells on zone 2297 
  1753  1.0011e-02  3.1768e-03  1.0377e-03  1.0747e-03  3.1668e-03  0:13:20  246

 Artificial walls on 618 faces (100.0% area) of pressure-inlet 42 to prevent fluid from flowing out of the boundary.

 absolute pressure limited to 1.000000e+00 in 286422 cells on zone 2297 
  1754  1.0073e-02  3.1820e-03  1.0595e-03  1.1059e-03  3.2273e-03  0:13:17  245

 Artificial walls on 618 faces (100.0% area) of pressure-inlet 42 to prevent fluid from flowing out of the boundary.

 absolute pressure limited to 1.000000e+00 in 286422 cells on zone 2297 
  1755  1.0139e-02  3.1849e-03  1.0825e-03  1.1378e-03  3.2889e-03  0:13:33  244

 Artificial walls on 618 faces (100.0% area) of pressure-inlet 42 to prevent fluid from flowing out of the boundary.

 absolute pressure limited to 1.000000e+00 in 286423 cells on zone 2297 
  1756  1.0208e-02  3.1853e-03  1.1064e-03  1.1703e-03  3.3493e-03  0:13:46  243

 Artificial walls on 618 faces (100.0% area) of pressure-inlet 42 to prevent fluid from flowing out of the boundary.

 absolute pressure limited to 1.000000e+00 in 286423 cells on zone 2297 
  1757  1.0283e-02  3.1830e-03  1.1312e-03  1.2030e-03  3.4073e-03  0:14:02  242

 Artificial walls on 618 faces (100.0% area) of pressure-inlet 42 to prevent fluid from flowing out of the boundary.

 absolute pressure limited to 1.000000e+00 in 286423 cells on zone 2297 
  1758  1.0364e-02  3.1777e-03  1.1568e-03  1.2357e-03  3.4649e-03  0:14:01  241

 Artificial walls on 618 faces (100.0% area) of pressure-inlet 42 to prevent fluid from flowing out of the boundary.

 absolute pressure limited to 1.000000e+00 in 286424 cells on zone 2297 
  1759  1.0454e-02  3.1703e-03  1.1832e-03  1.2680e-03  3.5228e-03  0:13:46  240

 Artificial walls on 618 faces (100.0% area) of pressure-inlet 42 to prevent fluid from flowing out of the boundary.
Absolute pressure limited to 1.000000e+00 in 3150653 cells during the last 11 iterations

 absolute pressure limited to 1.000000e+00 in 286424 cells on zone 2297 
  1760  1.0553e-02  3.1622e-03  1.2102e-03  1.3000e-03  3.5768e-03  0:13:36  239

 Artificial walls on 618 faces (100.0% area) of pressure-inlet 42 to prevent fluid from flowing out of the boundary.

 absolute pressure limited to 1.000000e+00 in 286424 cells on zone 2297 
  1761  1.0663e-02  3.1549e-03  1.2378e-03  1.3315e-03  3.6253e-03  0:13:26  238

 Artificial walls on 618 faces (100.0% area) of pressure-inlet 42 to prevent fluid from flowing out of the boundary.

 absolute pressure limited to 1.000000e+00 in 286424 cells on zone 2297 
  1762  1.0785e-02  3.1490e-03  1.2655e-03  1.3624e-03  3.6923e-03  0:13:48  237

 Artificial walls on 618 faces (100.0% area) of pressure-inlet 42 to prevent fluid from flowing out of the boundary.

 absolute pressure limited to 1.000000e+00 in 286424 cells on zone 2297 

  iter  continuity  x-velocity  y-velocity  z-velocity      energy     time/iter
  1763  1.0921e-02  3.1475e-03  1.2939e-03  1.3928e-03  3.7700e-03  0:14:04  236

 Artificial walls on 618 faces (100.0% area) of pressure-inlet 42 to prevent fluid from flowing out of the boundary.

 absolute pressure limited to 1.000000e+00 in 286424 cells on zone 2297 
  1764  1.1075e-02  3.1528e-03  1.3232e-03  1.4224e-03  3.8486e-03  0:14:13  235

 Artificial walls on 618 faces (100.0% area) of pressure-inlet 42 to prevent fluid from flowing out of the boundary.

 absolute pressure limited to 1.000000e+00 in 286424 cells on zone 2297 
  1765  1.1244e-02  3.1657e-03  1.3532e-03  1.4512e-03  3.9377e-03  0:13:51  234

 Artificial walls on 618 faces (100.0% area) of pressure-inlet 42 to prevent fluid from flowing out of the boundary.

 absolute pressure limited to 1.000000e+00 in 286424 cells on zone 2297 
  1766  1.1428e-02  3.1873e-03  1.3838e-03  1.4792e-03  4.0405e-03  0:13:18  233

 Artificial walls on 618 faces (100.0% area) of pressure-inlet 42 to prevent fluid from flowing out of the boundary.

 absolute pressure limited to 1.000000e+00 in 286424 cells on zone 2297 
  1767  1.1627e-02  3.2179e-03  1.4148e-03  1.5065e-03  4.1509e-03  0:13:01  232

 Artificial walls on 618 faces (100.0% area) of pressure-inlet 42 to prevent fluid from flowing out of the boundary.

 absolute pressure limited to 1.000000e+00 in 286424 cells on zone 2297 
  1768  1.1839e-02  3.2570e-03  1.4459e-03  1.5333e-03  4.2687e-03  0:12:39  231

 Artificial walls on 618 faces (100.0% area) of pressure-inlet 42 to prevent fluid from flowing out of the boundary.

 absolute pressure limited to 1.000000e+00 in 286424 cells on zone 2297 
  1769  1.2064e-02  3.3030e-03  1.4771e-03  1.5596e-03  4.3920e-03  0:12:11  230

 Artificial walls on 618 faces (100.0% area) of pressure-inlet 42 to prevent fluid from flowing out of the boundary.

 absolute pressure limited to 1.000000e+00 in 286424 cells on zone 2297 
  1770  1.2298e-02  3.3552e-03  1.5079e-03  1.5853e-03  4.5178e-03  0:11:52  229

 Artificial walls on 618 faces (100.0% area) of pressure-inlet 42 to prevent fluid from flowing out of the boundary.
Absolute pressure limited to 1.000000e+00 in 3150665 cells during the last 11 iterations

 absolute pressure limited to 1.000000e+00 in 286424 cells on zone 2297 
  1771  1.2540e-02  3.4125e-03  1.5381e-03  1.6105e-03  4.6458e-03  0:11:50  228

 Artificial walls on 618 faces (100.0% area) of pressure-inlet 42 to prevent fluid from flowing out of the boundary.

 absolute pressure limited to 1.000000e+00 in 286425 cells on zone 2297 
  1772  1.2788e-02  3.4734e-03  1.5673e-03  1.6350e-03  4.7745e-03  0:11:55  227

 Artificial walls on 618 faces (100.0% area) of pressure-inlet 42 to prevent fluid from flowing out of the boundary.

 absolute pressure limited to 1.000000e+00 in 286425 cells on zone 2297 
  1773  1.3041e-02  3.5377e-03  1.5952e-03  1.6587e-03  4.8998e-03  0:11:46  226

 Artificial walls on 618 faces (100.0% area) of pressure-inlet 42 to prevent fluid from flowing out of the boundary.

 absolute pressure limited to 1.000000e+00 in 286424 cells on zone 2297 

  iter  continuity  x-velocity  y-velocity  z-velocity      energy     time/iter
  1774  1.3299e-02  3.6050e-03  1.6216e-03  1.6816e-03  5.0241e-03  0:11:36  225

 Artificial walls on 618 faces (100.0% area) of pressure-inlet 42 to prevent fluid from flowing out of the boundary.

 absolute pressure limited to 1.000000e+00 in 286425 cells on zone 2297 
  1775  1.3562e-02  3.6752e-03  1.6461e-03  1.7038e-03  5.1453e-03  0:11:38  224

 Artificial walls on 618 faces (100.0% area) of pressure-inlet 42 to prevent fluid from flowing out of the boundary.

 absolute pressure limited to 1.000000e+00 in 286425 cells on zone 2297 
  1776  1.3830e-02  3.7489e-03  1.6685e-03  1.7251e-03  5.2636e-03  0:11:33  223

 Artificial walls on 618 faces (100.0% area) of pressure-inlet 42 to prevent fluid from flowing out of the boundary.

 absolute pressure limited to 1.000000e+00 in 286425 cells on zone 2297 
  1777  1.4101e-02  3.8266e-03  1.6886e-03  1.7454e-03  5.3802e-03  0:11:29  222

 Artificial walls on 618 faces (100.0% area) of pressure-inlet 42 to prevent fluid from flowing out of the boundary.

 absolute pressure limited to 1.000000e+00 in 286425 cells on zone 2297 
  1778  1.4376e-02  3.9089e-03  1.7064e-03  1.7645e-03  5.4938e-03  0:11:32  221

 Artificial walls on 618 faces (100.0% area) of pressure-inlet 42 to prevent fluid from flowing out of the boundary.

 absolute pressure limited to 1.000000e+00 in 286425 cells on zone 2297 
  1779  1.4656e-02  3.9970e-03  1.7219e-03  1.7823e-03  5.6023e-03  0:11:41  220

 Artificial walls on 618 faces (100.0% area) of pressure-inlet 42 to prevent fluid from flowing out of the boundary.

 absolute pressure limited to 1.000000e+00 in 286425 cells on zone 2297 
  1780  1.4940e-02  4.0917e-03  1.7352e-03  1.7985e-03  5.7086e-03  0:11:54  219

 Artificial walls on 618 faces (100.0% area) of pressure-inlet 42 to prevent fluid from flowing out of the boundary.

 absolute pressure limited to 1.000000e+00 in 286425 cells on zone 2297 
  1781  1.5226e-02  4.1938e-03  1.7464e-03  1.8129e-03  5.8112e-03  0:12:05  218

 Artificial walls on 618 faces (100.0% area) of pressure-inlet 42 to prevent fluid from flowing out of the boundary.
Absolute pressure limited to 1.000000e+00 in 3150676 cells during the last 11 iterations

 absolute pressure limited to 1.000000e+00 in 286425 cells on zone 2297 
  1782  1.5516e-02  4.3033e-03  1.7555e-03  1.8255e-03  5.9071e-03  0:12:20  217

 Artificial walls on 618 faces (100.0% area) of pressure-inlet 42 to prevent fluid from flowing out of the boundary.

 absolute pressure limited to 1.000000e+00 in 286426 cells on zone 2297 
  1783  1.5807e-02  4.4200e-03  1.7628e-03  1.8361e-03  5.9960e-03  0:12:33  216

 Artificial walls on 618 faces (100.0% area) of pressure-inlet 42 to prevent fluid from flowing out of the boundary.

 absolute pressure limited to 1.000000e+00 in 286426 cells on zone 2297 
  1784  1.6098e-02  4.5435e-03  1.7683e-03  1.8447e-03  6.0776e-03  0:12:28  215

 Artificial walls on 618 faces (100.0% area) of pressure-inlet 42 to prevent fluid from flowing out of the boundary.

 absolute pressure limited to 1.000000e+00 in 286426 cells on zone 2297 

  iter  continuity  x-velocity  y-velocity  z-velocity      energy     time/iter
  1785  1.6387e-02  4.6728e-03  1.7724e-03  1.8515e-03  6.1516e-03  0:12:16  214

 Artificial walls on 618 faces (100.0% area) of pressure-inlet 42 to prevent fluid from flowing out of the boundary.

 absolute pressure limited to 1.000000e+00 in 286426 cells on zone 2297 
  1786  1.6671e-02  4.8071e-03  1.7753e-03  1.8565e-03  6.2162e-03  0:12:15  213

 Artificial walls on 618 faces (100.0% area) of pressure-inlet 42 to prevent fluid from flowing out of the boundary.

 absolute pressure limited to 1.000000e+00 in 286425 cells on zone 2297 
  1787  1.6950e-02  4.9455e-03  1.7772e-03  1.8598e-03  6.2696e-03  0:12:04  212

 Artificial walls on 618 faces (100.0% area) of pressure-inlet 42 to prevent fluid from flowing out of the boundary.

 absolute pressure limited to 1.000000e+00 in 286425 cells on zone 2297 
  1788  1.7221e-02  5.0869e-03  1.7783e-03  1.8616e-03  6.3105e-03  0:11:53  211

 Artificial walls on 618 faces (100.0% area) of pressure-inlet 42 to prevent fluid from flowing out of the boundary.

 absolute pressure limited to 1.000000e+00 in 286425 cells on zone 2297 
  1789  1.7483e-02  5.2303e-03  1.7786e-03  1.8622e-03  6.3346e-03  0:11:35  210

 Artificial walls on 618 faces (100.0% area) of pressure-inlet 42 to prevent fluid from flowing out of the boundary.

 absolute pressure limited to 1.000000e+00 in 286425 cells on zone 2297 
  1790  1.7733e-02  5.3743e-03  1.7785e-03  1.8619e-03  6.3452e-03  0:11:09  209

 Artificial walls on 618 faces (100.0% area) of pressure-inlet 42 to prevent fluid from flowing out of the boundary.

 absolute pressure limited to 1.000000e+00 in 286424 cells on zone 2297 
  1791  1.7969e-02  5.5176e-03  1.7780e-03  1.8612e-03  6.3414e-03  0:10:58  208

 Artificial walls on 618 faces (100.0% area) of pressure-inlet 42 to prevent fluid from flowing out of the boundary.

 absolute pressure limited to 1.000000e+00 in 286425 cells on zone 2297 
  1792  1.8189e-02  5.6586e-03  1.7774e-03  1.8606e-03  6.3224e-03  0:11:13  207

 Artificial walls on 618 faces (100.0% area) of pressure-inlet 42 to prevent fluid from flowing out of the boundary.
Absolute pressure limited to 1.000000e+00 in 3150680 cells during the last 11 iterations

 absolute pressure limited to 1.000000e+00 in 286424 cells on zone 2297 
  1793  1.8393e-02  5.7956e-03  1.7769e-03  1.8605e-03  6.2906e-03  0:11:30  206

 Artificial walls on 618 faces (100.0% area) of pressure-inlet 42 to prevent fluid from flowing out of the boundary.

 absolute pressure limited to 1.000000e+00 in 286424 cells on zone 2297 
  1794  1.8580e-02  5.9272e-03  1.7770e-03  1.8615e-03  6.2452e-03  0:11:38  205

 Artificial walls on 618 faces (100.0% area) of pressure-inlet 42 to prevent fluid from flowing out of the boundary.

 absolute pressure limited to 1.000000e+00 in 286423 cells on zone 2297 
  1795  1.8749e-02  6.0529e-03  1.7778e-03  1.8640e-03  6.1909e-03  0:11:19  204
Done.

Operation stopped.
/exit y
(cx-gui-do cx-activate-item "Question*OK")

Posting ANSYS Product Improvement Program performance data 
Done.
Auto-Transcript Stop Time:  17:48:54, 14 Jul 2026 South Africa Standard Time 
Total Transcript Time: 5 Hour 59 Minute 37 Second.
