

Opening input/output transcript to file "C:\Users\Simon\Projects\MEng Electronics\Development of a Resistojet Thruster\2) Simulations\CFD\fluent-20260715-101444-56488.trn".
Auto-Transcript Start Time:  10:14:44, 15 Jul 2026 South Africa Standard Time 

              Welcome to ANSYS Fluent 2026 R1

              Copyright 2026 Synopsys, Inc. and ANSYS, Inc. All rights reserved.
              Unauthorized use, distribution or duplication is prohibited.
              This product is subject to U.S. laws governing export and re-export.
              For full Legal Notice, see documentation.

Build Time: Feb  2 2026 16:32:00 EST  Build Id: 10262  
 
Connected License Server List:	<Non FlexNet Publisher License Server (FNPLS)>

     --------------------------------------------------------------
     This is a student version of ANSYS FLUENT. Usage of this product
     license is limited to the terms and conditions specified in your ANSYS
     license form, additional terms section.
     --------------------------------------------------------------
Host spawning Node 0 on machine "SimonAsusLaptop" (win64).
Host waiting for connection from Node 0 at 127.0.0.1:55404 

Node 0 connecting to the Host ... connection established.

------------------------------------------------------------------------------------------
ID    Hostname         Core  O.S.         PID    CPU Model Name                          
------------------------------------------------------------------------------------------
n3    SimonAsusLaptop  4/20  Windows-x64  40208  12th Gen Intel(R) Core(TM) i7-12700H    
n2    SimonAsusLaptop  3/20  Windows-x64  66448  12th Gen Intel(R) Core(TM) i7-12700H    
n1    SimonAsusLaptop  2/20  Windows-x64  16784  12th Gen Intel(R) Core(TM) i7-12700H    
n0*   SimonAsusLaptop  1/20  Windows-x64  58828  12th Gen Intel(R) Core(TM) i7-12700H    
host  SimonAsusLaptop        Windows-x64  71832  12th Gen Intel(R) Core(TM) i7-12700H    

MPI Option Selected: intel
Selected system interconnect: default
------------------------------------------------------------------------------------------

Cleanup script file is C:\Users\Simon\Projects\MEng Electronics\Development of a Resistojet Thruster\2) Simulations\CFD\cleanup-fluent-SimonAsusLaptop-71832.bat
Note: Rank = 0: Process affinity not being set (6).
Note: Rank = 1: Process affinity not being set (6).
Note: Rank = 2: Process affinity not being set (6).
Note: Rank = 3: Process affinity not being set (6).

Graphics driver currently in use: dx11

Posting ANSYS Product Improvement Program startup data
Done.

> Fast-loading "C:\PROGRA~1\ANSYSI~1\ANSYSS~1\v261\fluent\fluent26.1.0\addons\afd\lib\hdfio.bin"
Done.

Reading from SimonAsusLaptop:"C:/Users/Simon/Projects/MEng Electronics/Development of a Resistojet Thruster/2) Simulations/CFD/Nozzle_axial_1500iterations.cas.h5" in NODE0 mode ...
  Reading mesh ...
      487606 cells,     3 cell zones ...
         123178 mixed cells,  zone id: 2287
          71222 mixed cells,  zone id: 2292
         293206 mixed cells,  zone id: 2297
     2290794 faces,    12 face zones ...
           5376 polygonal wall faces,  zone id: 1969
           5376 polygonal wall faces,  zone id: 2
           1951 polygonal wall faces,  zone id: 1882
           1951 polygonal wall faces,  zone id: 1
            190 polygonal interior faces,  zone id: 999
            190 polygonal wall faces,  zone id: 48
           1543 polygonal wall faces,  zone id: 47
          26672 polygonal pressure-outlet faces,  zone id: 46
            618 polygonal pressure-inlet faces,  zone id: 42
        1345918 mixed interior faces,  zone id: 2299
         365279 mixed interior faces,  zone id: 2294
         535730 mixed interior faces,  zone id: 2289
     1431185 nodes,     1 node zone  ...
  Done.


Building...
     mesh
	distributing mesh
		pairs....,
		parts....,
		faces....,
		nodes....,
		shadow nodes....,
		cells....,
        bandwidth reduction using Reverse Cuthill-McKee: 114227/3134 = 36.4477
  Reading boundary layer flags ...
  Done.

     materials,
     interface,
     domains,
	mixture
     zones,
	internal-wall:1969-shadow
	nozzle-volume-vacuum-shadow
	internal-wall:1969
	nozzle-volume-vacuum
	outlet:999
	nozzle-wall
	nozzle:1
	vacuum-boundaries
	inlet
	interior--volume-vacuum
	interior--nozzle
	interior--volume-fluid
	volume-fluid
	volume-vacuum
	nozzle
     parallel,
Done.

Reading from SimonAsusLaptop:"C:/Users/Simon/Projects/MEng Electronics/Development of a Resistojet Thruster/2) Simulations/CFD/Nozzle_axial_1500iterations.dat.h5" in NODE0 mode ...


  Reading results.
Parallel variables...
Done.

                  Mass Flow Rate              [kg/s]
-------------------------------- -------------------
                           inlet                   0

                  Mass Flow Rate              [kg/s]
-------------------------------- -------------------
                           inlet                   0
                ---------------- -------------------
                             Net                   0

Creating new file C:\Users\Simon\Projects\MEng Electronics\Development of a Resistojet Thruster\2) Simulations\CFD\.\exit-mach-rfile_1_1.out
Creating new file C:\Users\Simon\Projects\MEng Electronics\Development of a Resistojet Thruster\2) Simulations\CFD\.\exit-pressure-rfile_1_1.out
Creating new file C:\Users\Simon\Projects\MEng Electronics\Development of a Resistojet Thruster\2) Simulations\CFD\.\report-def-0-rfile_1_1.out
Creating new file C:\Users\Simon\Projects\MEng Electronics\Development of a Resistojet Thruster\2) Simulations\CFD\.\mass-flow-outlet-rfile_1_1.out
Creating new file C:\Users\Simon\Projects\MEng Electronics\Development of a Resistojet Thruster\2) Simulations\CFD\.\mass-flow-inlet-rfile_1_1.out

  iter  continuity  x-velocity  y-velocity  z-velocity      energy   exit-mach  exit-press      thrust     time/iter

==============================================================================

Node 3: Process 40208: Received signal SIGSEGV.

==============================================================================
 Error in the fluent (fl) process : connection reset

Operation stopped.

