Auto-Transcript Start Time:  17:50:17, 14 Jul 2026 South Africa Standard Time 
Current Directory: "C:\Users\Simon\Projects\MEng Electronics\Development of a Resistojet Thruster\2) Simulations\CFD"

              Welcome to ANSYS Fluent 2026 R1

              Copyright 2026 Synopsys, Inc. and ANSYS, Inc. All rights reserved.
              Unauthorized use, distribution or duplication is prohibited.
              This product is subject to U.S. laws governing export and re-export.
              For full Legal Notice, see documentation.

Build Time: Feb  2 2026 16:32:00 EST  Build Id: 10262  
 
Connected License Server List:	<Non FlexNet Publisher License Server (FNPLS)>

     --------------------------------------------------------------
     This is a student version of ANSYS FLUENT. Usage of this product
     license is limited to the terms and conditions specified in your ANSYS
     license form, additional terms section.
     --------------------------------------------------------------
Host spawning Node 0 on machine "SimonAsusLaptop" (win64).
Host waiting for connection from Node 0 at 127.0.0.1:64603 

Node 0 connecting to the Host ... connection established.

------------------------------------------------------------------------------------------
ID    Hostname         Core  O.S.         PID    CPU Model Name                          
------------------------------------------------------------------------------------------
n3    SimonAsusLaptop  4/20  Windows-x64  27400  12th Gen Intel(R) Core(TM) i7-12700H    
n2    SimonAsusLaptop  3/20  Windows-x64  64604  12th Gen Intel(R) Core(TM) i7-12700H    
n1    SimonAsusLaptop  2/20  Windows-x64  67304  12th Gen Intel(R) Core(TM) i7-12700H    
n0*   SimonAsusLaptop  1/20  Windows-x64  64140  12th Gen Intel(R) Core(TM) i7-12700H    
host  SimonAsusLaptop        Windows-x64  64488  12th Gen Intel(R) Core(TM) i7-12700H    

MPI Option Selected: intel
Selected system interconnect: default
------------------------------------------------------------------------------------------

Cleanup script file is C:\\Users\\Simon\\Projects\\MEng Electronics\\Development of a Resistojet Thruster\\2) Simulations\\CFD\\cleanup-fluent-SimonAsusLaptop-64488.bat
Note: Rank = 0: Process affinity not being set (6).
Note: Rank = 1: Process affinity not being set (6).
Note: Rank = 2: Process affinity not being set (6).
Note: Rank = 3: Process affinity not being set (6).

Graphics driver currently in use: dx11


Posting ANSYS Product Improvement Program startup data
Done.

> (cx-gui-do cx-activate-item "MenuBar*ReadSubMenu*Case & Data...")
(cx-gui-do cx-set-file-dialog-entries "Select File" '( "Nozzle_axial_1000iterations.cas.h5") "CFF Case Files (*.cas.h5 )")
Fast-loading "C:\PROGRA~1\ANSYSI~1\ANSYSS~1\v261\fluent\fluent26.1.0\\addons\afd\lib\hdfio.bin"
Done.

Reading from SimonAsusLaptop:"C:/Users/Simon/Projects/MEng Electronics/Development of a Resistojet Thruster/2) Simulations/CFD/Nozzle_axial_1000iterations.cas.h5" in NODE0 mode ...
  Reading mesh ...
      487606 cells,     3 cell zones ...
         123178 mixed cells,  zone id: 2287
          71222 mixed cells,  zone id: 2292
         293206 mixed cells,  zone id: 2297
     2290794 faces,    12 face zones ...
           5376 polygonal wall faces,  zone id: 1969
           5376 polygonal wall faces,  zone id: 2
           1951 polygonal wall faces,  zone id: 1882
           1951 polygonal wall faces,  zone id: 1
            190 polygonal interior faces,  zone id: 999
            190 polygonal wall faces,  zone id: 48
           1543 polygonal wall faces,  zone id: 47
          26672 polygonal pressure-outlet faces,  zone id: 46
            618 polygonal pressure-inlet faces,  zone id: 42
        1345918 mixed interior faces,  zone id: 2299
         365279 mixed interior faces,  zone id: 2294
         535730 mixed interior faces,  zone id: 2289
     1431185 nodes,     1 node zone  ...
  Done.


Building...
     mesh
	distributing mesh
		pairs....,
		parts....,
		faces....,
		nodes....,
		shadow nodes....,
		cells....,
        bandwidth reduction using Reverse Cuthill-McKee: 114227/3134 = 36.4477
  Reading boundary layer flags ...
  Done.

     materials,
     interface,
     domains,
	mixture
     zones,
	internal-wall:1969-shadow
	nozzle-volume-vacuum-shadow
	internal-wall:1969
	nozzle-volume-vacuum
	outlet:999
	nozzle-wall
	nozzle:1
	vacuum-boundaries
	inlet
	interior--volume-vacuum
	interior--nozzle
	interior--volume-fluid
	volume-fluid
	volume-vacuum
	nozzle
     parallel,
Done.

Reading from SimonAsusLaptop:"C:/Users/Simon/Projects/MEng Electronics/Development of a Resistojet Thruster/2) Simulations/CFD/Nozzle_axial_1000iterations.dat.h5" in NODE0 mode ...


  Reading results.
Parallel variables...
Done.
(cx-gui-do cx-set-list-tree-selections "NavigationPane*Frame2*Table1*List_Tree2" (list "Setup|General""Setup|Models""Setup|Materials""Setup|Motion Definitions""Setup|Cell Zone Conditions""Setup|Boundary Conditions""Setup|Mesh Interfaces""Setup|Auxiliary Geometry Definitions""Setup|Dynamic Mesh""Setup|Reference Values""Setup|Reference Frames""Setup|Named Expressions""Setup|Curvilinear Coordinate System""Solution|Methods""Solution|Controls""Solution|Report Definitions""Solution|Monitors""Solution|Cell Registers""Solution|Automatic Mesh Adaption""Setup""Solution"))
(cx-gui-do cx-set-list-tree-selections "NavigationPane*Frame2*Table1*List_Tree2" (list "Solution|Run Calculation"))
(cx-gui-do cx-set-list-tree-selections "NavigationPane*Frame2*Table1*List_Tree2" (list "Solution|Cell Registers"))
(cx-gui-do cx-set-list-tree-selections "NavigationPane*Frame2*Table1*List_Tree2" (list "Solution|Monitors"))
(cx-gui-do cx-set-list-tree-selections "NavigationPane*Frame2*Table1*List_Tree2" (list "Solution|Report Definitions"))
(cx-gui-do cx-set-list-tree-selections "NavigationPane*Frame2*Table1*List_Tree2" (list "Solution|Monitors|Residual"))
(cx-gui-do cx-set-list-tree-selections "NavigationPane*Frame2*Table1*List_Tree2" (list "Solution|Monitors|Residual"))
(cx-gui-do cx-activate-item "NavigationPane*Frame2*Table1*List_Tree2")
(cx-gui-do cx-set-list-tree-selections "NavigationPane*Frame2*Table1*List_Tree2" (list "Solution|Monitors|Residual"))
(cx-gui-do cx-activate-item "Residual Monitors*PanelButtons*PushButton1(OK)")
(cx-gui-do cx-set-list-tree-selections "NavigationPane*Frame2*Table1*List_Tree2" (list "Solution|Monitors|Report Plots"))
(cx-gui-do cx-set-list-tree-selections "NavigationPane*Frame2*Table1*List_Tree2" (list "Solution|Monitors|Report Plots"))
(cx-gui-do cx-activate-item "NavigationPane*Frame2*Table1*List_Tree2")
(cx-gui-do cx-set-list-tree-selections "NavigationPane*Frame2*Table1*List_Tree2" (list "Solution|Monitors|Report Plots"))
(cx-gui-do cx-activate-item "Report Plot Definitions*PanelButtons*PushButton1(Close)")
(cx-gui-do cx-activate-item "Ribbon*Frame1*Frame5(Solution)*Table1*Table3(Reports)*PushButton2(Definitions)")
(cx-gui-do cx-activate-item "MenuBar*Flux ReportSubMenu*Mass Flow Rate...")
(cx-gui-do cx-set-list-selections "Flux Report Definition*Table2*Table2*List2(Boundaries)" '( 0))
(cx-gui-do cx-activate-item "Flux Report Definition*Table2*Table2*List2(Boundaries)")
(cx-gui-do cx-set-list-selections "Flux Report Definition*Table2*Table2*List2(Boundaries)" '( 0 10))
(cx-gui-do cx-activate-item "Flux Report Definition*Table2*Table2*List2(Boundaries)")
(cx-gui-do cx-activate-item "Flux Report Definition*PanelButtons*PushButton5(Compute)")

                  Mass Flow Rate              [kg/s]
-------------------------------- -------------------
                    report-def-0                   0
(cx-gui-do cx-set-list-selections "Flux Report Definition*Table2*Table2*List2(Boundaries)" '( 0))
(cx-gui-do cx-activate-item "Flux Report Definition*Table2*Table2*List2(Boundaries)")
(cx-gui-do cx-set-text-entry "Flux Report Definition*TextEntry1(Name)" "mass-flow-inlet")
(cx-gui-do cx-activate-item "Flux Report Definition*TextEntry1(Name)")
(cx-gui-do cx-activate-item "Flux Report Definition*PanelButtons*PushButton5(Compute)")

                  Mass Flow Rate              [kg/s]
-------------------------------- -------------------
                           inlet                   0
(cx-gui-do cx-activate-item "Flux Report Definition*PanelButtons*PushButton1(OK)")
(cx-gui-do cx-activate-item "Ribbon*Frame1*Frame5(Solution)*Table1*Table3(Reports)*PushButton2(Definitions)")
(cx-gui-do cx-activate-item "MenuBar*Flux ReportSubMenu*Mass Flow Rate...")
(cx-gui-do cx-set-text-entry "Flux Report Definition*TextEntry1(Name)" "mass-flow-outlet")
(cx-gui-do cx-activate-item "Flux Report Definition*TextEntry1(Name)")
(cx-gui-do cx-set-list-selections "Flux Report Definition*Table2*Table2*List2(Boundaries)" '( 10))
(cx-gui-do cx-activate-item "Flux Report Definition*Table2*Table2*List2(Boundaries)")
(cx-gui-do cx-activate-item "Flux Report Definition*PanelButtons*PushButton5(Compute)")

                  Mass Flow Rate              [kg/s]
-------------------------------- -------------------
                      outlet:999                   0
(cx-gui-do cx-activate-item "Flux Report Definition*PanelButtons*PushButton1(OK)")
(cx-gui-do cx-activate-item "Ribbon*Frame1*Frame5(Solution)*Table1*Table3(Reports)*PushButton2(Definitions)")
(cx-gui-do cx-activate-item "MenuBar*Force ReportSubMenu*Force...")
(cx-gui-do cx-activate-item "Force Report Definition*PanelButtons*PushButton2(Cancel)")
(cx-gui-do cx-activate-item "Ribbon*Frame1*Frame5(Solution)*Table1*Table3(Reports)*PushButton2(Definitions)")
(cx-gui-do cx-activate-item "MenuBar*Force ReportSubMenu*Force...")
(cx-gui-do cx-set-list-selections "Force Report Definition*Table1*Table2*List2(Zones)" '( 0 4))
(cx-gui-do cx-activate-item "Force Report Definition*Table1*Table2*List2(Zones)")
(cx-gui-do cx-set-list-selections "Force Report Definition*Table1*Table2*List2(Zones)" '( 0 4 5))
(cx-gui-do cx-activate-item "Force Report Definition*Table1*Table2*List2(Zones)")
(cx-gui-do cx-set-list-selections "Force Report Definition*Table1*Table2*List2(Zones)" '( 0 5))
(cx-gui-do cx-activate-item "Force Report Definition*Table1*Table2*List2(Zones)")
(cx-gui-do cx-set-list-selections "Force Report Definition*Table1*Table2*List2(Zones)" '( 0))
(cx-gui-do cx-activate-item "Force Report Definition*Table1*Table2*List2(Zones)")
(cx-gui-do cx-set-list-selections "Force Report Definition*Table1*Table2*List2(Zones)" '( 0 4))
(cx-gui-do cx-activate-item "Force Report Definition*Table1*Table2*List2(Zones)")
(cx-gui-do cx-set-list-selections "Force Report Definition*Table1*Table2*List2(Zones)" '( 0))
(cx-gui-do cx-activate-item "Force Report Definition*Table1*Table2*List2(Zones)")
(cx-gui-do cx-set-toggle-button2 "Force Report Definition*Table1*Table1*Table5(Create)*CheckButton4(Print to Console)" #t)
(cx-gui-do cx-activate-item "Force Report Definition*Table1*Table1*Table5(Create)*CheckButton4(Print to Console)")
(cx-gui-do cx-activate-item "Force Report Definition*PanelButtons*PushButton6(Compute)")

                           Force                 [N]
-------------------------------- -------------------
              internal-wall:1969           6.1642339
(cx-gui-do cx-activate-item "Force Report Definition*PanelButtons*PushButton1(OK)")
(cx-gui-do cx-set-list-tree-selections "NavigationPane*Frame2*Table1*List_Tree2" (list "Results|Reports|Forces"))
(cx-gui-do cx-set-list-tree-selections "NavigationPane*Frame2*Table1*List_Tree2" (list "Simulation Reports|Report Outline"))
(cx-gui-do cx-set-list-tree-selections "NavigationPane*Frame2*Table1*List_Tree2" (list "Simulation Reports|Report Outline"))
(cx-gui-do cx-activate-item "NavigationPane*Frame2*Table1*List_Tree2")
(cx-gui-do cx-set-list-tree-selections "NavigationPane*Frame2*Table1*List_Tree2" (list "Simulation Reports|Report Outline"))
(cx-gui-do cx-activate-item "Ribbon*Frame1*Frame5(Solution)*Table1*Table3(Reports)*PushButton2(Definitions)")
(cx-gui-do cx-activate-item "MenuBar*PopupMenuMonitorDefinitions*Edit...")
(cx-gui-do cx-set-list-selections "Report Definitions*Table1*List1(Report Definitions)" '( 3))
(cx-gui-do cx-activate-item "Report Definitions*Table1*List1(Report Definitions)")
(cx-gui-do cx-activate-item "Report Definitions*Table1*ButtonBox3*PushButton2(Edit)")
(cx-gui-do cx-set-text-entry "Force Report Definition*Table1*TextEntry3(Name)" "thrust")
(cx-gui-do cx-activate-item "Force Report Definition*Table1*TextEntry3(Name)")
(cx-gui-do cx-set-real-entry-list "Force Report Definition*Table1*Table1*Table2*Table2(Force Vector)*RealEntry2(Y)" '( 1))
(cx-gui-do cx-set-real-entry-list "Force Report Definition*Table1*Table1*Table2*Table2(Force Vector)*RealEntry1(X)" '( 0))
(cx-gui-do cx-activate-item "Force Report Definition*PanelButtons*PushButton6(Compute)")

                           Force                 [N]
-------------------------------- -------------------
              internal-wall:1969      -3.6588419e-06
(cx-gui-do cx-set-real-entry-list "Force Report Definition*Table1*Table1*Table2*Table2(Force Vector)*RealEntry3(Z)" '( 1))
(cx-gui-do cx-set-real-entry-list "Force Report Definition*Table1*Table1*Table2*Table2(Force Vector)*RealEntry2(Y)" '( 0))
(cx-gui-do cx-activate-item "Force Report Definition*PanelButtons*PushButton1(OK)")
(cx-gui-do cx-set-list-selections "Report Definitions*Table1*List1(Report Definitions)" '( 3))
(cx-gui-do cx-activate-item "Report Definitions*Table1*List1(Report Definitions)")
(cx-gui-do cx-activate-item "Report Definitions*Table1*ButtonBox3*PushButton2(Edit)")
(cx-gui-do cx-activate-item "Force Report Definition*PanelButtons*PushButton6(Compute)")

                           Force                 [N]
-------------------------------- -------------------
              internal-wall:1969      -8.4773367e-06
(cx-gui-do cx-set-real-entry-list "Force Report Definition*Table1*Table1*Table2*Table2(Force Vector)*RealEntry1(X)" '( 1))
(cx-gui-do cx-set-real-entry-list "Force Report Definition*Table1*Table1*Table2*Table2(Force Vector)*RealEntry3(Z)" '( 0))
(cx-gui-do cx-activate-item "Force Report Definition*PanelButtons*PushButton1(OK)")
(cx-gui-do cx-activate-item "Report Definitions*Table1*ButtonBox3*PushButton2(Edit)")
(cx-gui-do cx-activate-item "Force Report Definition*PanelButtons*PushButton6(Compute)")

                           Force                 [N]
-------------------------------- -------------------
              internal-wall:1969           6.1642339
(cx-gui-do cx-activate-item "Force Report Definition*PanelButtons*PushButton1(OK)")
(cx-gui-do cx-activate-item "Report Definitions*PanelButtons*PushButton1(Close)")
(cx-gui-do cx-activate-item "Ribbon*Frame1*Frame5(Solution)*Table1*Table3(Reports)*PushButton2(Definitions)")
(cx-gui-do cx-activate-item "Ribbon*Frame1*Frame5(Solution)*Table1*Table3(Reports)*PushButton2(Definitions)")
(cx-gui-do cx-activate-item "MenuBar*Surface ReportSubMenu*Area-Weighted Average...")
(cx-gui-do cx-set-list-selections "Surface Report Definition*Table1*Table2*Table6*List1(Surfaces)" '( 7))
(cx-gui-do cx-activate-item "Surface Report Definition*Table1*Table2*Table6*List1(Surfaces)")
(cx-gui-do cx-set-text-entry "Surface Report Definition*Table1*Table1*TextEntry1(Name)" "exit-pressure")
(cx-gui-do cx-activate-item "Surface Report Definition*Table1*Table1*TextEntry1(Name)")
(cx-gui-do cx-set-toggle-button2 "Surface Report Definition*Table1*Table1*Table6(Create)*CheckButton4(Print to Console)" #t)
(cx-gui-do cx-activate-item "Surface Report Definition*Table1*Table1*Table6(Create)*CheckButton4(Print to Console)")
(cx-gui-do cx-activate-item "Surface Report Definition*PanelButtons*PushButton4(Compute)")

           Area-Weighted Average                [Pa]
-------------------------------- -------------------
                      outlet:999           29.074064
(cx-gui-do cx-activate-item "Surface Report Definition*PanelButtons*PushButton1(OK)")
(cx-gui-do cx-activate-item "Ribbon*Frame1*Frame5(Solution)*Table1*Table3(Reports)*PushButton2(Definitions)")
(cx-gui-do cx-activate-item "MenuBar*Surface ReportSubMenu*Area-Weighted Average...")
(cx-gui-do cx-set-text-entry "Surface Report Definition*Table1*Table1*TextEntry1(Name)" "exit-mach")
(cx-gui-do cx-activate-item "Surface Report Definition*Table1*Table1*TextEntry1(Name)")
(cx-gui-do cx-set-list-selections "Surface Report Definition*Table1*Table2*DropDownList3(Field Variable)" '( 2))
(cx-gui-do cx-activate-item "Surface Report Definition*Table1*Table2*DropDownList3(Field Variable)")
(cx-gui-do cx-set-list-selections "Surface Report Definition*Table1*Table2*DropDownList4" '( 7))
(cx-gui-do cx-activate-item "Surface Report Definition*Table1*Table2*DropDownList4")
(cx-gui-do cx-set-list-selections "Surface Report Definition*Table1*Table2*Table6*List1(Surfaces)" '( 7))
(cx-gui-do cx-activate-item "Surface Report Definition*Table1*Table2*Table6*List1(Surfaces)")
(cx-gui-do cx-set-toggle-button2 "Surface Report Definition*Table1*Table1*Table6(Create)*CheckButton4(Print to Console)" #t)
(cx-gui-do cx-activate-item "Surface Report Definition*Table1*Table1*Table6(Create)*CheckButton4(Print to Console)")
(cx-gui-do cx-activate-item "Surface Report Definition*PanelButtons*PushButton4(Compute)")

           Area-Weighted Average                    
-------------------------------- -------------------
                      outlet:999           2.9250331
(cx-gui-do cx-activate-item "Surface Report Definition*PanelButtons*PushButton1(OK)")
(cx-gui-do cx-activate-item "Ribbon*Frame1*Frame5(Solution)*Table1*Table3(Reports)*PushButton2(Definitions)")
(cx-gui-do cx-activate-item "MenuBar*PopupMenuMonitorDefinitions*Edit...")
(cx-gui-do cx-set-list-selections "Report Definitions*Table1*List1(Report Definitions)" '( 3 5))
(cx-gui-do cx-activate-item "Report Definitions*Table1*List1(Report Definitions)")
(cx-gui-do cx-set-list-selections "Report Definitions*Table1*List1(Report Definitions)" '( 3))
(cx-gui-do cx-activate-item "Report Definitions*Table1*List1(Report Definitions)")
(cx-gui-do cx-activate-item "Report Definitions*Table1*ButtonBox3*PushButton2(Edit)")
(cx-gui-do cx-activate-item "Flux Report Definition*PanelButtons*PushButton5(Compute)")

                  Mass Flow Rate              [kg/s]
-------------------------------- -------------------
                           inlet                   0
(cx-gui-do cx-activate-item "Flux Report Definition*PanelButtons*PushButton2(Cancel)")
(cx-gui-do cx-activate-item "Report Definitions*PanelButtons*PushButton1(Close)")
(cx-gui-do cx-activate-item "Ribbon*Frame1*Frame5(Solution)*Table1*PushButton1(Run Calculation)")
(cx-gui-do cx-activate-item "Ribbon*Frame1*Frame5(Solution)*Table1*Table3(Controls)*PushButton1(Controls)")
(cx-gui-do cx-activate-item "Ribbon*Frame1*Frame5(Solution)*Table1*Table3(Solution)*PushButton1(Methods)")
(cx-gui-do cx-activate-item "Ribbon*Frame1*Frame5(Solution)*Table1*Table3(Controls)*PushButton1(Controls)")
(cx-gui-do cx-activate-item "Ribbon*Frame1*Frame5(Solution)*Table1*PushButton1(Run Calculation)")
(cx-gui-do cx-activate-item "Ribbon*Frame1*Frame5(Solution)*Table1*Table3(Run Calculation)*PushButton9(Calculate)")


  iter  continuity  x-velocity  y-velocity  z-velocity      energy   exit-mach  exit-press      thrust     time/iter
  1000  6.1268e-03  1.8239e-03  1.0933e-03  1.0243e-03  1.8961e-03  2.9250e+00  2.9074e+01  6.1642e+00  0:00:00  500

 Artificial walls on 618 faces (100.0% area) of pressure-inlet 42 to prevent fluid from flowing out of the boundary.

 absolute pressure limited to 1.000000e+00 in 286492 cells on zone 2297 
  1001  6.1025e-03  1.8213e-03  1.0966e-03  1.0321e-03  1.8891e-03  2.9249e+00  2.9075e+01  6.1642e+00  0:35:08  499

 Artificial walls on 618 faces (100.0% area) of pressure-inlet 42 to prevent fluid from flowing out of the boundary.

 absolute pressure limited to 1.000000e+00 in 286492 cells on zone 2297 
  1002  6.0759e-03  1.8181e-03  1.0988e-03  1.0392e-03  1.8928e-03  2.9247e+00  2.9075e+01  6.1642e+00  0:41:28  498

 Artificial walls on 618 faces (100.0% area) of pressure-inlet 42 to prevent fluid from flowing out of the boundary.

 absolute pressure limited to 1.000000e+00 in 286492 cells on zone 2297 
  1003  6.0467e-03  1.8139e-03  1.1000e-03  1.0457e-03  1.8544e-03  2.9245e+00  2.9075e+01  6.1642e+00  0:38:45  497

 Artificial walls on 618 faces (100.0% area) of pressure-inlet 42 to prevent fluid from flowing out of the boundary.

 absolute pressure limited to 1.000000e+00 in 286489 cells on zone 2297 
  1004  6.0145e-03  1.8089e-03  1.1002e-03  1.0516e-03  1.8403e-03  2.9244e+00  2.9075e+01  6.1642e+00  0:36:33  496

 Artificial walls on 618 faces (100.0% area) of pressure-inlet 42 to prevent fluid from flowing out of the boundary.

 absolute pressure limited to 1.000000e+00 in 286487 cells on zone 2297 
  1005  5.9794e-03  1.8029e-03  1.0993e-03  1.0568e-03  1.8253e-03  2.9242e+00  2.9076e+01  6.1642e+00  0:34:32  495

 Artificial walls on 618 faces (100.0% area) of pressure-inlet 42 to prevent fluid from flowing out of the boundary.

 absolute pressure limited to 1.000000e+00 in 286488 cells on zone 2297 
  1006  5.9417e-03  1.7960e-03  1.0973e-03  1.0612e-03  1.8106e-03  2.9240e+00  2.9076e+01  6.1642e+00  0:33:05  494

 Artificial walls on 618 faces (100.0% area) of pressure-inlet 42 to prevent fluid from flowing out of the boundary.

 absolute pressure limited to 1.000000e+00 in 286488 cells on zone 2297 
  1007  5.9018e-03  1.7882e-03  1.0945e-03  1.0650e-03  1.7958e-03  2.9238e+00  2.9076e+01  6.1642e+00  0:31:53  493

 Artificial walls on 618 faces (100.0% area) of pressure-inlet 42 to prevent fluid from flowing out of the boundary.

 absolute pressure limited to 1.000000e+00 in 286488 cells on zone 2297 
  1008  5.8601e-03  1.7795e-03  1.0909e-03  1.0680e-03  1.7817e-03  2.9236e+00  2.9076e+01  6.1642e+00  0:30:48  492

 Artificial walls on 618 faces (100.0% area) of pressure-inlet 42 to prevent fluid from flowing out of the boundary.

 absolute pressure limited to 1.000000e+00 in 286487 cells on zone 2297 
  1009  5.8172e-03  1.7701e-03  1.0865e-03  1.0702e-03  1.7678e-03  2.9234e+00  2.9076e+01  6.1642e+00  0:30:23  491

 Artificial walls on 618 faces (100.0% area) of pressure-inlet 42 to prevent fluid from flowing out of the boundary.

 absolute pressure limited to 1.000000e+00 in 286487 cells on zone 2297 
  1010  5.7733e-03  1.7597e-03  1.0815e-03  1.0718e-03  1.7533e-03  2.9232e+00  2.9076e+01  6.1642e+00  0:29:44  490

 Artificial walls on 618 faces (100.0% area) of pressure-inlet 42 to prevent fluid from flowing out of the boundary.
Absolute pressure limited to 1.000000e+00 in 3151391 cells during the last 11 iterations

 absolute pressure limited to 1.000000e+00 in 286486 cells on zone 2297 

  iter  continuity  x-velocity  y-velocity  z-velocity      energy   exit-mach  exit-press      thrust     time/iter
  1011  5.7285e-03  1.7485e-03  1.0758e-03  1.0727e-03  1.7399e-03  2.9230e+00  2.9076e+01  6.1642e+00  0:29:11  489

 Artificial walls on 618 faces (100.0% area) of pressure-inlet 42 to prevent fluid from flowing out of the boundary.

 absolute pressure limited to 1.000000e+00 in 286486 cells on zone 2297 
  1012  5.6829e-03  1.7364e-03  1.0695e-03  1.0730e-03  1.7283e-03  2.9228e+00  2.9075e+01  6.1642e+00  0:28:42  488

 Artificial walls on 618 faces (100.0% area) of pressure-inlet 42 to prevent fluid from flowing out of the boundary.

 absolute pressure limited to 1.000000e+00 in 286487 cells on zone 2297 
  1013  5.6372e-03  1.7236e-03  1.0627e-03  1.0726e-03  1.7153e-03  2.9226e+00  2.9075e+01  6.1642e+00  0:28:32  487

 Artificial walls on 618 faces (100.0% area) of pressure-inlet 42 to prevent fluid from flowing out of the boundary.

 absolute pressure limited to 1.000000e+00 in 286488 cells on zone 2297 
  1014  5.5920e-03  1.7100e-03  1.0555e-03  1.0716e-03  1.7043e-03  2.9224e+00  2.9075e+01  6.1642e+00  0:28:29  486

 Artificial walls on 618 faces (100.0% area) of pressure-inlet 42 to prevent fluid from flowing out of the boundary.

 absolute pressure limited to 1.000000e+00 in 286488 cells on zone 2297 
  1015  5.5481e-03  1.6961e-03  1.0478e-03  1.0700e-03  1.6952e-03  2.9221e+00  2.9075e+01  6.1642e+00  0:30:02  485

 Artificial walls on 618 faces (100.0% area) of pressure-inlet 42 to prevent fluid from flowing out of the boundary.

 absolute pressure limited to 1.000000e+00 in 286487 cells on zone 2297 
  1016  5.5059e-03  1.6818e-03  1.0398e-03  1.0678e-03  1.6867e-03  2.9219e+00  2.9074e+01  6.1642e+00  0:32:13  484

 Artificial walls on 618 faces (100.0% area) of pressure-inlet 42 to prevent fluid from flowing out of the boundary.

 absolute pressure limited to 1.000000e+00 in 286487 cells on zone 2297 
  1017  5.4659e-03  1.6673e-03  1.0315e-03  1.0651e-03  1.6797e-03  2.9217e+00  2.9074e+01  6.1642e+00  0:32:22  483

 Artificial walls on 618 faces (100.0% area) of pressure-inlet 42 to prevent fluid from flowing out of the boundary.

 absolute pressure limited to 1.000000e+00 in 286486 cells on zone 2297 
  1018  5.4283e-03  1.6529e-03  1.0230e-03  1.0620e-03  1.6742e-03  2.9215e+00  2.9074e+01  6.1642e+00  0:32:08  482

 Artificial walls on 618 faces (100.0% area) of pressure-inlet 42 to prevent fluid from flowing out of the boundary.

 absolute pressure limited to 1.000000e+00 in 286486 cells on zone 2297 
  1019  5.3936e-03  1.6389e-03  1.0143e-03  1.0585e-03  1.6702e-03  2.9213e+00  2.9073e+01  6.1642e+00  0:31:51  481

 Artificial walls on 618 faces (100.0% area) of pressure-inlet 42 to prevent fluid from flowing out of the boundary.

 absolute pressure limited to 1.000000e+00 in 286486 cells on zone 2297 
  1020  5.3621e-03  1.6255e-03  1.0055e-03  1.0545e-03  1.6673e-03  2.9211e+00  2.9073e+01  6.1642e+00  0:31:26  480

 Artificial walls on 618 faces (100.0% area) of pressure-inlet 42 to prevent fluid from flowing out of the boundary.

 absolute pressure limited to 1.000000e+00 in 286487 cells on zone 2297 
  1021  5.3341e-03  1.6127e-03  9.9665e-04  1.0501e-03  1.6659e-03  2.9210e+00  2.9072e+01  6.1642e+00  0:30:34  479

 Artificial walls on 618 faces (100.0% area) of pressure-inlet 42 to prevent fluid from flowing out of the boundary.
Absolute pressure limited to 1.000000e+00 in 3151364 cells during the last 11 iterations

 absolute pressure limited to 1.000000e+00 in 286488 cells on zone 2297 

  iter  continuity  x-velocity  y-velocity  z-velocity      energy   exit-mach  exit-press      thrust     time/iter
  1022  5.3098e-03  1.6007e-03  9.8786e-04  1.0453e-03  1.6666e-03  2.9208e+00  2.9072e+01  6.1642e+00  0:30:07  478

 Artificial walls on 618 faces (100.0% area) of pressure-inlet 42 to prevent fluid from flowing out of the boundary.

 absolute pressure limited to 1.000000e+00 in 286486 cells on zone 2297 
  1023  5.2897e-03  1.5895e-03  9.7908e-04  1.0401e-03  1.6690e-03  2.9206e+00  2.9071e+01  6.1642e+00  0:29:48  477

 Artificial walls on 618 faces (100.0% area) of pressure-inlet 42 to prevent fluid from flowing out of the boundary.

 absolute pressure limited to 1.000000e+00 in 286487 cells on zone 2297 
  1024  5.2740e-03  1.5795e-03  9.7036e-04  1.0348e-03  1.6731e-03  2.9204e+00  2.9070e+01  6.1642e+00  0:29:51  476

 Artificial walls on 618 faces (100.0% area) of pressure-inlet 42 to prevent fluid from flowing out of the boundary.

 absolute pressure limited to 1.000000e+00 in 286488 cells on zone 2297 
  1025  5.2629e-03  1.5709e-03  9.6175e-04  1.0291e-03  1.6785e-03  2.9203e+00  2.9070e+01  6.1642e+00  0:29:54  475

 Artificial walls on 618 faces (100.0% area) of pressure-inlet 42 to prevent fluid from flowing out of the boundary.

 absolute pressure limited to 1.000000e+00 in 286487 cells on zone 2297 
  1026  5.2567e-03  1.5640e-03  9.5328e-04  1.0232e-03  1.6845e-03  2.9201e+00  2.9069e+01  6.1642e+00  0:30:20  474

 Artificial walls on 618 faces (100.0% area) of pressure-inlet 42 to prevent fluid from flowing out of the boundary.

 absolute pressure limited to 1.000000e+00 in 286487 cells on zone 2297 
  1027  5.2551e-03  1.5587e-03  9.4503e-04  1.0172e-03  1.6910e-03  2.9199e+00  2.9068e+01  6.1642e+00  0:30:51  473

 Artificial walls on 618 faces (100.0% area) of pressure-inlet 42 to prevent fluid from flowing out of the boundary.

 absolute pressure limited to 1.000000e+00 in 286490 cells on zone 2297 
  1028  5.2583e-03  1.5550e-03  9.3697e-04  1.0109e-03  1.6983e-03  2.9198e+00  2.9068e+01  6.1642e+00  0:31:58  472

 Artificial walls on 618 faces (100.0% area) of pressure-inlet 42 to prevent fluid from flowing out of the boundary.

 absolute pressure limited to 1.000000e+00 in 286491 cells on zone 2297 
  1029  5.2660e-03  1.5527e-03  9.2915e-04  1.0044e-03  1.7065e-03  2.9196e+00  2.9067e+01  6.1642e+00  0:32:33  471

 Artificial walls on 618 faces (100.0% area) of pressure-inlet 42 to prevent fluid from flowing out of the boundary.

 absolute pressure limited to 1.000000e+00 in 286492 cells on zone 2297 
  1030  5.2781e-03  1.5518e-03  9.2163e-04  9.9785e-04  1.7153e-03  2.9195e+00  2.9066e+01  6.1642e+00  0:32:59  470

 Artificial walls on 618 faces (100.0% area) of pressure-inlet 42 to prevent fluid from flowing out of the boundary.

 absolute pressure limited to 1.000000e+00 in 286494 cells on zone 2297 
  1031  5.2950e-03  1.5522e-03  9.1439e-04  9.9106e-04  1.7241e-03  2.9194e+00  2.9065e+01  6.1642e+00  0:33:23  469

 Artificial walls on 618 faces (100.0% area) of pressure-inlet 42 to prevent fluid from flowing out of the boundary.

 absolute pressure limited to 1.000000e+00 in 286493 cells on zone 2297 
  1032  5.3161e-03  1.5538e-03  9.0745e-04  9.8410e-04  1.7336e-03  2.9192e+00  2.9064e+01  6.1642e+00  0:33:49  468

 Artificial walls on 618 faces (100.0% area) of pressure-inlet 42 to prevent fluid from flowing out of the boundary.
Absolute pressure limited to 1.000000e+00 in 3151403 cells during the last 11 iterations

 absolute pressure limited to 1.000000e+00 in 286493 cells on zone 2297 

  iter  continuity  x-velocity  y-velocity  z-velocity      energy   exit-mach  exit-press      thrust     time/iter
  1033  5.3418e-03  1.5568e-03  9.0087e-04  9.7700e-04  1.7438e-03  2.9191e+00  2.9063e+01  6.1642e+00  0:34:35  467

 Artificial walls on 618 faces (100.0% area) of pressure-inlet 42 to prevent fluid from flowing out of the boundary.

 absolute pressure limited to 1.000000e+00 in 286493 cells on zone 2297 
  1034  5.3716e-03  1.5609e-03  8.9466e-04  9.6995e-04  1.7544e-03  2.9190e+00  2.9063e+01  6.1642e+00  0:33:25  466

 Artificial walls on 618 faces (100.0% area) of pressure-inlet 42 to prevent fluid from flowing out of the boundary.

 absolute pressure limited to 1.000000e+00 in 286493 cells on zone 2297 
  1035  5.4058e-03  1.5663e-03  8.8877e-04  9.6283e-04  1.7666e-03  2.9189e+00  2.9062e+01  6.1642e+00  0:32:02  465

 Artificial walls on 618 faces (100.0% area) of pressure-inlet 42 to prevent fluid from flowing out of the boundary.

 absolute pressure limited to 1.000000e+00 in 286493 cells on zone 2297 
  1036  5.4441e-03  1.5730e-03  8.8321e-04  9.5570e-04  1.7791e-03  2.9188e+00  2.9061e+01  6.1642e+00  0:30:55  464

 Artificial walls on 618 faces (100.0% area) of pressure-inlet 42 to prevent fluid from flowing out of the boundary.

 absolute pressure limited to 1.000000e+00 in 286495 cells on zone 2297 
  1037  5.4863e-03  1.5809e-03  8.7799e-04  9.4863e-04  1.7920e-03  2.9187e+00  2.9060e+01  6.1642e+00  0:30:00  463

 Artificial walls on 618 faces (100.0% area) of pressure-inlet 42 to prevent fluid from flowing out of the boundary.

 absolute pressure limited to 1.000000e+00 in 286493 cells on zone 2297 
  1038  5.5321e-03  1.5900e-03  8.7309e-04  9.4167e-04  1.8060e-03  2.9186e+00  2.9059e+01  6.1642e+00  0:29:20  462

 Artificial walls on 618 faces (100.0% area) of pressure-inlet 42 to prevent fluid from flowing out of the boundary.

 absolute pressure limited to 1.000000e+00 in 286495 cells on zone 2297 
  1039  5.5810e-03  1.6003e-03  8.6846e-04  9.3485e-04  1.8186e-03  2.9185e+00  2.9058e+01  6.1642e+00  0:28:50  461

 Artificial walls on 618 faces (100.0% area) of pressure-inlet 42 to prevent fluid from flowing out of the boundary.

 absolute pressure limited to 1.000000e+00 in 286495 cells on zone 2297 
  1040  5.6324e-03  1.6115e-03  8.6408e-04  9.2822e-04  1.8326e-03  2.9185e+00  2.9057e+01  6.1642e+00  0:28:07  460

 Artificial walls on 618 faces (100.0% area) of pressure-inlet 42 to prevent fluid from flowing out of the boundary.

 absolute pressure limited to 1.000000e+00 in 286497 cells on zone 2297 
  1041  5.6856e-03  1.6236e-03  8.5992e-04  9.2188e-04  1.8480e-03  2.9184e+00  2.9056e+01  6.1642e+00  0:27:35  459

 Artificial walls on 618 faces (100.0% area) of pressure-inlet 42 to prevent fluid from flowing out of the boundary.

 absolute pressure limited to 1.000000e+00 in 286496 cells on zone 2297 
  1042  5.7400e-03  1.6363e-03  8.5597e-04  9.1586e-04  1.8641e-03  2.9183e+00  2.9055e+01  6.1642e+00  0:27:28  458

 Artificial walls on 618 faces (100.0% area) of pressure-inlet 42 to prevent fluid from flowing out of the boundary.

 absolute pressure limited to 1.000000e+00 in 286496 cells on zone 2297 
  1043  5.7952e-03  1.6495e-03  8.5216e-04  9.1021e-04  1.8790e-03  2.9183e+00  2.9053e+01  6.1642e+00  0:27:05  457

 Artificial walls on 618 faces (100.0% area) of pressure-inlet 42 to prevent fluid from flowing out of the boundary.
Absolute pressure limited to 1.000000e+00 in 3151468 cells during the last 11 iterations

 absolute pressure limited to 1.000000e+00 in 286497 cells on zone 2297 

  iter  continuity  x-velocity  y-velocity  z-velocity      energy   exit-mach  exit-press      thrust     time/iter
  1044  5.8505e-03  1.6630e-03  8.4840e-04  9.0495e-04  1.8941e-03  2.9182e+00  2.9052e+01  6.1642e+00  0:26:37  456

 Artificial walls on 618 faces (100.0% area) of pressure-inlet 42 to prevent fluid from flowing out of the boundary.

 absolute pressure limited to 1.000000e+00 in 286500 cells on zone 2297 
  1045  5.9055e-03  1.6767e-03  8.4464e-04  9.0013e-04  1.9095e-03  2.9182e+00  2.9051e+01  6.1642e+00  0:26:10  455

 Artificial walls on 618 faces (100.0% area) of pressure-inlet 42 to prevent fluid from flowing out of the boundary.

 absolute pressure limited to 1.000000e+00 in 286498 cells on zone 2297 
  1046  5.9593e-03  1.6905e-03  8.4082e-04  8.9579e-04  1.9256e-03  2.9181e+00  2.9050e+01  6.1642e+00  0:25:40  454

 Artificial walls on 618 faces (100.0% area) of pressure-inlet 42 to prevent fluid from flowing out of the boundary.

 absolute pressure limited to 1.000000e+00 in 286498 cells on zone 2297 
  1047  6.0116e-03  1.7043e-03  8.3692e-04  8.9201e-04  1.9419e-03  2.9181e+00  2.9049e+01  6.1642e+00  0:25:15  453

 Artificial walls on 618 faces (100.0% area) of pressure-inlet 42 to prevent fluid from flowing out of the boundary.

 absolute pressure limited to 1.000000e+00 in 286498 cells on zone 2297 
  1048  6.0619e-03  1.7181e-03  8.3297e-04  8.8863e-04  1.9582e-03  2.9181e+00  2.9048e+01  6.1642e+00  0:25:09  452

 Artificial walls on 618 faces (100.0% area) of pressure-inlet 42 to prevent fluid from flowing out of the boundary.

 absolute pressure limited to 1.000000e+00 in 286499 cells on zone 2297 
  1049  6.1097e-03  1.7316e-03  8.2898e-04  8.8551e-04  1.9746e-03  2.9180e+00  2.9047e+01  6.1642e+00  0:24:50  451

 Artificial walls on 618 faces (100.0% area) of pressure-inlet 42 to prevent fluid from flowing out of the boundary.

 absolute pressure limited to 1.000000e+00 in 286498 cells on zone 2297 
  1050  6.1548e-03  1.7449e-03  8.2493e-04  8.8259e-04  1.9905e-03  2.9180e+00  2.9046e+01  6.1642e+00  0:24:29  450

 Artificial walls on 618 faces (100.0% area) of pressure-inlet 42 to prevent fluid from flowing out of the boundary.

 absolute pressure limited to 1.000000e+00 in 286498 cells on zone 2297 
  1051  6.1965e-03  1.7580e-03  8.2074e-04  8.7983e-04  2.0059e-03  2.9180e+00  2.9045e+01  6.1642e+00  0:24:00  449

 Artificial walls on 618 faces (100.0% area) of pressure-inlet 42 to prevent fluid from flowing out of the boundary.

 absolute pressure limited to 1.000000e+00 in 286498 cells on zone 2297 
  1052  6.2351e-03  1.7709e-03  8.1622e-04  8.7724e-04  2.0206e-03  2.9180e+00  2.9044e+01  6.1642e+00  0:23:55  448

 Artificial walls on 618 faces (100.0% area) of pressure-inlet 42 to prevent fluid from flowing out of the boundary.

 absolute pressure limited to 1.000000e+00 in 286499 cells on zone 2297 
  1053  6.2703e-03  1.7838e-03  8.1132e-04  8.7474e-04  2.0340e-03  2.9180e+00  2.9043e+01  6.1642e+00  0:23:47  447

 Artificial walls on 618 faces (100.0% area) of pressure-inlet 42 to prevent fluid from flowing out of the boundary.

 absolute pressure limited to 1.000000e+00 in 286498 cells on zone 2297 
  1054  6.3020e-03  1.7963e-03  8.0603e-04  8.7229e-04  2.0471e-03  2.9180e+00  2.9042e+01  6.1642e+00  0:23:48  446

 Artificial walls on 618 faces (100.0% area) of pressure-inlet 42 to prevent fluid from flowing out of the boundary.
Absolute pressure limited to 1.000000e+00 in 3151496 cells during the last 11 iterations

 absolute pressure limited to 1.000000e+00 in 286500 cells on zone 2297 

  iter  continuity  x-velocity  y-velocity  z-velocity      energy   exit-mach  exit-press      thrust     time/iter
  1055  6.3301e-03  1.8085e-03  8.0044e-04  8.6971e-04  2.0598e-03  2.9180e+00  2.9040e+01  6.1642e+00  0:24:02  445

 Artificial walls on 618 faces (100.0% area) of pressure-inlet 42 to prevent fluid from flowing out of the boundary.

 absolute pressure limited to 1.000000e+00 in 286500 cells on zone 2297 
  1056  6.3546e-03  1.8205e-03  7.9457e-04  8.6696e-04  2.0706e-03  2.9180e+00  2.9039e+01  6.1642e+00  0:24:08  444

 Artificial walls on 618 faces (100.0% area) of pressure-inlet 42 to prevent fluid from flowing out of the boundary.

 absolute pressure limited to 1.000000e+00 in 286501 cells on zone 2297 
  1057  6.3752e-03  1.8321e-03  7.8837e-04  8.6394e-04  2.0796e-03  2.9180e+00  2.9038e+01  6.1642e+00  0:24:04  443

 Artificial walls on 618 faces (100.0% area) of pressure-inlet 42 to prevent fluid from flowing out of the boundary.

 absolute pressure limited to 1.000000e+00 in 286501 cells on zone 2297 
  1058  6.3915e-03  1.8428e-03  7.8177e-04  8.6062e-04  2.0891e-03  2.9181e+00  2.9037e+01  6.1642e+00  0:24:03  442

 Artificial walls on 618 faces (100.0% area) of pressure-inlet 42 to prevent fluid from flowing out of the boundary.

 absolute pressure limited to 1.000000e+00 in 286499 cells on zone 2297 
  1059  6.4038e-03  1.8528e-03  7.7497e-04  8.5708e-04  2.0983e-03  2.9181e+00  2.9036e+01  6.1642e+00  0:24:55  441

 Artificial walls on 618 faces (100.0% area) of pressure-inlet 42 to prevent fluid from flowing out of the boundary.

 absolute pressure limited to 1.000000e+00 in 286500 cells on zone 2297 
  1060  6.4123e-03  1.8618e-03  7.6790e-04  8.5331e-04  2.1072e-03  2.9181e+00  2.9035e+01  6.1642e+00  0:24:40  440

 Artificial walls on 618 faces (100.0% area) of pressure-inlet 42 to prevent fluid from flowing out of the boundary.

 absolute pressure limited to 1.000000e+00 in 286500 cells on zone 2297 
  1061  6.4174e-03  1.8702e-03  7.6057e-04  8.4931e-04  2.1141e-03  2.9181e+00  2.9034e+01  6.1642e+00  0:24:37  439

 Artificial walls on 618 faces (100.0% area) of pressure-inlet 42 to prevent fluid from flowing out of the boundary.

 absolute pressure limited to 1.000000e+00 in 286501 cells on zone 2297 
  1062  6.4193e-03  1.8778e-03  7.5300e-04  8.4481e-04  2.1203e-03  2.9182e+00  2.9033e+01  6.1642e+00  0:24:45  438

 Artificial walls on 618 faces (100.0% area) of pressure-inlet 42 to prevent fluid from flowing out of the boundary.

 absolute pressure limited to 1.000000e+00 in 286501 cells on zone 2297 
  1063  6.4184e-03  1.8846e-03  7.4522e-04  8.3960e-04  2.1232e-03  2.9182e+00  2.9032e+01  6.1642e+00  0:25:43  437

 Artificial walls on 618 faces (100.0% area) of pressure-inlet 42 to prevent fluid from flowing out of the boundary.

 absolute pressure limited to 1.000000e+00 in 286500 cells on zone 2297 
  1064  6.4148e-03  1.8902e-03  7.3720e-04  8.3370e-04  2.1265e-03  2.9183e+00  2.9031e+01  6.1642e+00  0:25:34  436

 Artificial walls on 618 faces (100.0% area) of pressure-inlet 42 to prevent fluid from flowing out of the boundary.

 absolute pressure limited to 1.000000e+00 in 286500 cells on zone 2297 
  1065  6.4088e-03  1.8948e-03  7.2899e-04  8.2721e-04  2.1283e-03  2.9183e+00  2.9030e+01  6.1642e+00  0:25:22  435

 Artificial walls on 618 faces (100.0% area) of pressure-inlet 42 to prevent fluid from flowing out of the boundary.
Absolute pressure limited to 1.000000e+00 in 3151508 cells during the last 11 iterations

 absolute pressure limited to 1.000000e+00 in 286500 cells on zone 2297 

  iter  continuity  x-velocity  y-velocity  z-velocity      energy   exit-mach  exit-press      thrust     time/iter
  1066  6.4007e-03  1.8984e-03  7.2058e-04  8.2017e-04  2.1273e-03  2.9183e+00  2.9028e+01  6.1642e+00  0:25:09  434

 Artificial walls on 618 faces (100.0% area) of pressure-inlet 42 to prevent fluid from flowing out of the boundary.

 absolute pressure limited to 1.000000e+00 in 286501 cells on zone 2297 
  1067  6.3904e-03  1.9009e-03  7.1198e-04  8.1264e-04  2.1241e-03  2.9184e+00  2.9027e+01  6.1642e+00  0:24:46  433

 Artificial walls on 618 faces (100.0% area) of pressure-inlet 42 to prevent fluid from flowing out of the boundary.

 absolute pressure limited to 1.000000e+00 in 286501 cells on zone 2297 
  1068  6.3782e-03  1.9023e-03  7.0324e-04  8.0463e-04  2.1208e-03  2.9184e+00  2.9026e+01  6.1642e+00  0:24:30  432

 Artificial walls on 618 faces (100.0% area) of pressure-inlet 42 to prevent fluid from flowing out of the boundary.

 absolute pressure limited to 1.000000e+00 in 286500 cells on zone 2297 
  1069  6.3641e-03  1.9030e-03  6.9444e-04  7.9614e-04  2.1161e-03  2.9185e+00  2.9025e+01  6.1642e+00  0:24:12  431

 Artificial walls on 618 faces (100.0% area) of pressure-inlet 42 to prevent fluid from flowing out of the boundary.

 absolute pressure limited to 1.000000e+00 in 286500 cells on zone 2297 
  1070  6.3485e-03  1.9030e-03  6.8558e-04  7.8724e-04  2.1110e-03  2.9186e+00  2.9024e+01  6.1642e+00  0:23:58  430

 Artificial walls on 618 faces (100.0% area) of pressure-inlet 42 to prevent fluid from flowing out of the boundary.

 absolute pressure limited to 1.000000e+00 in 286499 cells on zone 2297 
  1071  6.3315e-03  1.9024e-03  6.7678e-04  7.7795e-04  2.1050e-03  2.9186e+00  2.9023e+01  6.1642e+00  0:23:45  429

 Artificial walls on 618 faces (100.0% area) of pressure-inlet 42 to prevent fluid from flowing out of the boundary.

 absolute pressure limited to 1.000000e+00 in 286499 cells on zone 2297 
  1072  6.3132e-03  1.9014e-03  6.6794e-04  7.6838e-04  2.0974e-03  2.9187e+00  2.9022e+01  6.1642e+00  0:23:28  428

 Artificial walls on 618 faces (100.0% area) of pressure-inlet 42 to prevent fluid from flowing out of the boundary.

 absolute pressure limited to 1.000000e+00 in 286499 cells on zone 2297 
  1073  6.2939e-03  1.8999e-03  6.5900e-04  7.5865e-04  2.0881e-03  2.9187e+00  2.9022e+01  6.1642e+00  0:23:18  427

 Artificial walls on 618 faces (100.0% area) of pressure-inlet 42 to prevent fluid from flowing out of the boundary.

 absolute pressure limited to 1.000000e+00 in 286499 cells on zone 2297 
  1074  6.2735e-03  1.8978e-03  6.5002e-04  7.4877e-04  2.0704e-03  2.9188e+00  2.9021e+01  6.1642e+00  0:23:00  426

 Artificial walls on 618 faces (100.0% area) of pressure-inlet 42 to prevent fluid from flowing out of the boundary.

 absolute pressure limited to 1.000000e+00 in 286499 cells on zone 2297 
  1075  6.2513e-03  1.8945e-03  6.4105e-04  7.3879e-04  2.0578e-03  2.9189e+00  2.9020e+01  6.1642e+00  0:22:39  425

 Artificial walls on 618 faces (100.0% area) of pressure-inlet 42 to prevent fluid from flowing out of the boundary.

 absolute pressure limited to 1.000000e+00 in 286500 cells on zone 2297 
  1076  6.2282e-03  1.8906e-03  6.3217e-04  7.2881e-04  2.0473e-03  2.9189e+00  2.9019e+01  6.1642e+00  0:22:23  424

 Artificial walls on 618 faces (100.0% area) of pressure-inlet 42 to prevent fluid from flowing out of the boundary.
Absolute pressure limited to 1.000000e+00 in 3151501 cells during the last 11 iterations

 absolute pressure limited to 1.000000e+00 in 286500 cells on zone 2297 

  iter  continuity  x-velocity  y-velocity  z-velocity      energy   exit-mach  exit-press      thrust     time/iter
  1077  6.2052e-03  1.8865e-03  6.2340e-04  7.1889e-04  2.0369e-03  2.9190e+00  2.9018e+01  6.1642e+00  0:22:09  423

 Artificial walls on 618 faces (100.0% area) of pressure-inlet 42 to prevent fluid from flowing out of the boundary.

 absolute pressure limited to 1.000000e+00 in 286500 cells on zone 2297 
  1078  6.1821e-03  1.8823e-03  6.1477e-04  7.0905e-04  2.0278e-03  2.9191e+00  2.9017e+01  6.1642e+00  0:21:55  422

 Artificial walls on 618 faces (100.0% area) of pressure-inlet 42 to prevent fluid from flowing out of the boundary.

 absolute pressure limited to 1.000000e+00 in 286499 cells on zone 2297 
  1079  6.1592e-03  1.8782e-03  6.0628e-04  6.9937e-04  2.0192e-03  2.9191e+00  2.9017e+01  6.1642e+00  0:21:47  421

 Artificial walls on 618 faces (100.0% area) of pressure-inlet 42 to prevent fluid from flowing out of the boundary.

 absolute pressure limited to 1.000000e+00 in 286499 cells on zone 2297 
  1080  6.1362e-03  1.8740e-03  5.9793e-04  6.8998e-04  2.0107e-03  2.9192e+00  2.9016e+01  6.1642e+00  0:21:43  420

 Artificial walls on 618 faces (100.0% area) of pressure-inlet 42 to prevent fluid from flowing out of the boundary.

 absolute pressure limited to 1.000000e+00 in 286499 cells on zone 2297 
  1081  6.1128e-03  1.8693e-03  5.8982e-04  6.8100e-04  2.0037e-03  2.9193e+00  2.9015e+01  6.1642e+00  0:21:43  419

 Artificial walls on 618 faces (100.0% area) of pressure-inlet 42 to prevent fluid from flowing out of the boundary.

 absolute pressure limited to 1.000000e+00 in 286497 cells on zone 2297 
  1082  6.0890e-03  1.8641e-03  5.8214e-04  6.7249e-04  1.9959e-03  2.9193e+00  2.9015e+01  6.1642e+00  0:21:49  418

 Artificial walls on 618 faces (100.0% area) of pressure-inlet 42 to prevent fluid from flowing out of the boundary.

 absolute pressure limited to 1.000000e+00 in 286498 cells on zone 2297 
  1083  6.0643e-03  1.8582e-03  5.7499e-04  6.6448e-04  1.9874e-03  2.9194e+00  2.9014e+01  6.1642e+00  0:21:55  417

 Artificial walls on 618 faces (100.0% area) of pressure-inlet 42 to prevent fluid from flowing out of the boundary.

 absolute pressure limited to 1.000000e+00 in 286499 cells on zone 2297 
  1084  6.0382e-03  1.8515e-03  5.6844e-04  6.5701e-04  1.9794e-03  2.9195e+00  2.9013e+01  6.1642e+00  0:21:59  416

 Artificial walls on 618 faces (100.0% area) of pressure-inlet 42 to prevent fluid from flowing out of the boundary.

 absolute pressure limited to 1.000000e+00 in 286499 cells on zone 2297 
  1085  6.0107e-03  1.8438e-03  5.6254e-04  6.5013e-04  1.9711e-03  2.9195e+00  2.9013e+01  6.1642e+00  0:22:04  415

 Artificial walls on 618 faces (100.0% area) of pressure-inlet 42 to prevent fluid from flowing out of the boundary.

 absolute pressure limited to 1.000000e+00 in 286500 cells on zone 2297 
  1086  5.9815e-03  1.8352e-03  5.5741e-04  6.4374e-04  1.9631e-03  2.9196e+00  2.9012e+01  6.1642e+00  0:22:06  414

 Artificial walls on 618 faces (100.0% area) of pressure-inlet 42 to prevent fluid from flowing out of the boundary.

 absolute pressure limited to 1.000000e+00 in 286500 cells on zone 2297 
  1087  5.9506e-03  1.8257e-03  5.5304e-04  6.3785e-04  1.9522e-03  2.9197e+00  2.9012e+01  6.1642e+00  0:22:02  413

 Artificial walls on 618 faces (100.0% area) of pressure-inlet 42 to prevent fluid from flowing out of the boundary.
Absolute pressure limited to 1.000000e+00 in 3151495 cells during the last 11 iterations

 absolute pressure limited to 1.000000e+00 in 286500 cells on zone 2297 

  iter  continuity  x-velocity  y-velocity  z-velocity      energy   exit-mach  exit-press      thrust     time/iter
  1088  5.9180e-03  1.8154e-03  5.4947e-04  6.3246e-04  1.9419e-03  2.9197e+00  2.9012e+01  6.1642e+00  0:22:02  412

 Artificial walls on 618 faces (100.0% area) of pressure-inlet 42 to prevent fluid from flowing out of the boundary.

 absolute pressure limited to 1.000000e+00 in 286500 cells on zone 2297 
  1089  5.8842e-03  1.8046e-03  5.4677e-04  6.2759e-04  1.9308e-03  2.9198e+00  2.9011e+01  6.1642e+00  0:21:59  411

 Artificial walls on 618 faces (100.0% area) of pressure-inlet 42 to prevent fluid from flowing out of the boundary.

 absolute pressure limited to 1.000000e+00 in 286500 cells on zone 2297 
  1090  5.8491e-03  1.7932e-03  5.4499e-04  6.2323e-04  1.9192e-03  2.9199e+00  2.9011e+01  6.1642e+00  0:22:02  410

 Artificial walls on 618 faces (100.0% area) of pressure-inlet 42 to prevent fluid from flowing out of the boundary.

 absolute pressure limited to 1.000000e+00 in 286498 cells on zone 2297 
  1091  5.8130e-03  1.7813e-03  5.4412e-04  6.1936e-04  1.9067e-03  2.9199e+00  2.9011e+01  6.1642e+00  0:21:59  409

 Artificial walls on 618 faces (100.0% area) of pressure-inlet 42 to prevent fluid from flowing out of the boundary.

 absolute pressure limited to 1.000000e+00 in 286498 cells on zone 2297 
  1092  5.7762e-03  1.7692e-03  5.4413e-04  6.1590e-04  1.8925e-03  2.9200e+00  2.9010e+01  6.1642e+00  0:22:00  408

 Artificial walls on 618 faces (100.0% area) of pressure-inlet 42 to prevent fluid from flowing out of the boundary.

 absolute pressure limited to 1.000000e+00 in 286500 cells on zone 2297 
  1093  5.7390e-03  1.7571e-03  5.4492e-04  6.1283e-04  1.8773e-03  2.9200e+00  2.9010e+01  6.1642e+00  0:22:04  407

 Artificial walls on 618 faces (100.0% area) of pressure-inlet 42 to prevent fluid from flowing out of the boundary.

 absolute pressure limited to 1.000000e+00 in 286499 cells on zone 2297 
  1094  5.7020e-03  1.7456e-03  5.4636e-04  6.1005e-04  1.8624e-03  2.9201e+00  2.9010e+01  6.1642e+00  0:22:02  406

 Artificial walls on 618 faces (100.0% area) of pressure-inlet 42 to prevent fluid from flowing out of the boundary.

 absolute pressure limited to 1.000000e+00 in 286497 cells on zone 2297 
  1095  5.6658e-03  1.7348e-03  5.4835e-04  6.0755e-04  1.8473e-03  2.9202e+00  2.9010e+01  6.1642e+00  0:22:08  405

 Artificial walls on 618 faces (100.0% area) of pressure-inlet 42 to prevent fluid from flowing out of the boundary.

 absolute pressure limited to 1.000000e+00 in 286494 cells on zone 2297 
  1096  5.6311e-03  1.7252e-03  5.5082e-04  6.0523e-04  1.8326e-03  2.9202e+00  2.9009e+01  6.1642e+00  0:22:04  404

 Artificial walls on 618 faces (100.0% area) of pressure-inlet 42 to prevent fluid from flowing out of the boundary.

 absolute pressure limited to 1.000000e+00 in 286494 cells on zone 2297 
  1097  5.5984e-03  1.7169e-03  5.5360e-04  6.0304e-04  1.8181e-03  2.9203e+00  2.9009e+01  6.1642e+00  0:21:57  403

 Artificial walls on 618 faces (100.0% area) of pressure-inlet 42 to prevent fluid from flowing out of the boundary.

 absolute pressure limited to 1.000000e+00 in 286494 cells on zone 2297 
  1098  5.5684e-03  1.7101e-03  5.5658e-04  6.0095e-04  1.8054e-03  2.9203e+00  2.9009e+01  6.1642e+00  0:21:50  402

 Artificial walls on 618 faces (100.0% area) of pressure-inlet 42 to prevent fluid from flowing out of the boundary.
Absolute pressure limited to 1.000000e+00 in 3151477 cells during the last 11 iterations

 absolute pressure limited to 1.000000e+00 in 286493 cells on zone 2297 

  iter  continuity  x-velocity  y-velocity  z-velocity      energy   exit-mach  exit-press      thrust     time/iter
  1099  5.5409e-03  1.7050e-03  5.5960e-04  5.9899e-04  1.7921e-03  2.9204e+00  2.9009e+01  6.1642e+00  0:21:38  401

 Artificial walls on 618 faces (100.0% area) of pressure-inlet 42 to prevent fluid from flowing out of the boundary.

 absolute pressure limited to 1.000000e+00 in 286491 cells on zone 2297 
  1100  5.5164e-03  1.7014e-03  5.6255e-04  5.9711e-04  1.7784e-03  2.9204e+00  2.9009e+01  6.1642e+00  0:21:26  400

 Artificial walls on 618 faces (100.0% area) of pressure-inlet 42 to prevent fluid from flowing out of the boundary.

 absolute pressure limited to 1.000000e+00 in 286489 cells on zone 2297 
  1101  5.4948e-03  1.6990e-03  5.6537e-04  5.9529e-04  1.7660e-03  2.9205e+00  2.9009e+01  6.1642e+00  0:21:08  399

 Artificial walls on 618 faces (100.0% area) of pressure-inlet 42 to prevent fluid from flowing out of the boundary.

 absolute pressure limited to 1.000000e+00 in 286490 cells on zone 2297 
  1102  5.4761e-03  1.6977e-03  5.6793e-04  5.9357e-04  1.7559e-03  2.9205e+00  2.9009e+01  6.1642e+00  0:21:40  398

 Artificial walls on 618 faces (100.0% area) of pressure-inlet 42 to prevent fluid from flowing out of the boundary.

 absolute pressure limited to 1.000000e+00 in 286491 cells on zone 2297 
  1103  5.4601e-03  1.6973e-03  5.7011e-04  5.9193e-04  1.7477e-03  2.9206e+00  2.9009e+01  6.1642e+00  0:21:15  397

 Artificial walls on 618 faces (100.0% area) of pressure-inlet 42 to prevent fluid from flowing out of the boundary.

 absolute pressure limited to 1.000000e+00 in 286491 cells on zone 2297 
  1104  5.4468e-03  1.6979e-03  5.7191e-04  5.9045e-04  1.7395e-03  2.9206e+00  2.9009e+01  6.1642e+00  0:20:53  396

 Artificial walls on 618 faces (100.0% area) of pressure-inlet 42 to prevent fluid from flowing out of the boundary.

 absolute pressure limited to 1.000000e+00 in 286492 cells on zone 2297 
  1105  5.4360e-03  1.6991e-03  5.7333e-04  5.8913e-04  1.7337e-03  2.9207e+00  2.9009e+01  6.1642e+00  0:20:34  395

 Artificial walls on 618 faces (100.0% area) of pressure-inlet 42 to prevent fluid from flowing out of the boundary.

 absolute pressure limited to 1.000000e+00 in 286491 cells on zone 2297 
  1106  5.4276e-03  1.7009e-03  5.7440e-04  5.8801e-04  1.7288e-03  2.9207e+00  2.9009e+01  6.1642e+00  0:20:17  394

 Artificial walls on 618 faces (100.0% area) of pressure-inlet 42 to prevent fluid from flowing out of the boundary.

 absolute pressure limited to 1.000000e+00 in 286488 cells on zone 2297 
  1107  5.4208e-03  1.7027e-03  5.7514e-04  5.8712e-04  1.7254e-03  2.9208e+00  2.9009e+01  6.1642e+00  0:20:04  393

 Artificial walls on 618 faces (100.0% area) of pressure-inlet 42 to prevent fluid from flowing out of the boundary.

 absolute pressure limited to 1.000000e+00 in 286490 cells on zone 2297 
  1108  5.4154e-03  1.7047e-03  5.7555e-04  5.8646e-04  1.7230e-03  2.9208e+00  2.9009e+01  6.1642e+00  0:19:50  392

 Artificial walls on 618 faces (100.0% area) of pressure-inlet 42 to prevent fluid from flowing out of the boundary.

 absolute pressure limited to 1.000000e+00 in 286490 cells on zone 2297 
  1109  5.4109e-03  1.7066e-03  5.7565e-04  5.8605e-04  1.7205e-03  2.9209e+00  2.9009e+01  6.1642e+00  0:19:43  391

 Artificial walls on 618 faces (100.0% area) of pressure-inlet 42 to prevent fluid from flowing out of the boundary.
Absolute pressure limited to 1.000000e+00 in 3151411 cells during the last 11 iterations

 absolute pressure limited to 1.000000e+00 in 286485 cells on zone 2297 

  iter  continuity  x-velocity  y-velocity  z-velocity      energy   exit-mach  exit-press      thrust     time/iter
  1110  5.4067e-03  1.7082e-03  5.7547e-04  5.8593e-04  1.7186e-03  2.9209e+00  2.9009e+01  6.1642e+00  0:19:39  390

 Artificial walls on 618 faces (100.0% area) of pressure-inlet 42 to prevent fluid from flowing out of the boundary.

 absolute pressure limited to 1.000000e+00 in 286486 cells on zone 2297 
  1111  5.4020e-03  1.7093e-03  5.7502e-04  5.8614e-04  1.7159e-03  2.9210e+00  2.9010e+01  6.1642e+00  0:19:36  389

 Artificial walls on 618 faces (100.0% area) of pressure-inlet 42 to prevent fluid from flowing out of the boundary.

 absolute pressure limited to 1.000000e+00 in 286489 cells on zone 2297 
  1112  5.3962e-03  1.7096e-03  5.7435e-04  5.8670e-04  1.7127e-03  2.9210e+00  2.9010e+01  6.1642e+00  0:19:35  388

 Artificial walls on 618 faces (100.0% area) of pressure-inlet 42 to prevent fluid from flowing out of the boundary.

 absolute pressure limited to 1.000000e+00 in 286489 cells on zone 2297 
  1113  5.3888e-03  1.7091e-03  5.7359e-04  5.8764e-04  1.7091e-03  2.9211e+00  2.9010e+01  6.1642e+00  0:19:39  387

 Artificial walls on 618 faces (100.0% area) of pressure-inlet 42 to prevent fluid from flowing out of the boundary.

 absolute pressure limited to 1.000000e+00 in 286489 cells on zone 2297 
  1114  5.3797e-03  1.7077e-03  5.7282e-04  5.8896e-04  1.7059e-03  2.9211e+00  2.9010e+01  6.1642e+00  0:19:43  386

 Artificial walls on 618 faces (100.0% area) of pressure-inlet 42 to prevent fluid from flowing out of the boundary.

 absolute pressure limited to 1.000000e+00 in 286489 cells on zone 2297 
  1115  5.3685e-03  1.7051e-03  5.7211e-04  5.9063e-04  1.7020e-03  2.9212e+00  2.9010e+01  6.1642e+00  0:19:51  385

 Artificial walls on 618 faces (100.0% area) of pressure-inlet 42 to prevent fluid from flowing out of the boundary.

 absolute pressure limited to 1.000000e+00 in 286489 cells on zone 2297 
  1116  5.3551e-03  1.7014e-03  5.7154e-04  5.9261e-04  1.6983e-03  2.9212e+00  2.9011e+01  6.1642e+00  0:19:59  384

 Artificial walls on 618 faces (100.0% area) of pressure-inlet 42 to prevent fluid from flowing out of the boundary.

 absolute pressure limited to 1.000000e+00 in 286490 cells on zone 2297 
  1117  5.3395e-03  1.6969e-03  5.7117e-04  5.9487e-04  1.6937e-03  2.9213e+00  2.9011e+01  6.1642e+00  0:20:07  383

 Artificial walls on 618 faces (100.0% area) of pressure-inlet 42 to prevent fluid from flowing out of the boundary.

 absolute pressure limited to 1.000000e+00 in 286491 cells on zone 2297 
  1118  5.3217e-03  1.6916e-03  5.7106e-04  5.9734e-04  1.6882e-03  2.9213e+00  2.9011e+01  6.1642e+00  0:20:12  382

 Artificial walls on 618 faces (100.0% area) of pressure-inlet 42 to prevent fluid from flowing out of the boundary.

 absolute pressure limited to 1.000000e+00 in 286487 cells on zone 2297 
  1119  5.3021e-03  1.6858e-03  5.7131e-04  5.9999e-04  1.6833e-03  2.9213e+00  2.9011e+01  6.1642e+00  0:20:18  381

 Artificial walls on 618 faces (100.0% area) of pressure-inlet 42 to prevent fluid from flowing out of the boundary.

 absolute pressure limited to 1.000000e+00 in 286488 cells on zone 2297 
  1120  5.2809e-03  1.6793e-03  5.7197e-04  6.0277e-04  1.6767e-03  2.9214e+00  2.9011e+01  6.1642e+00  0:20:18  380

 Artificial walls on 618 faces (100.0% area) of pressure-inlet 42 to prevent fluid from flowing out of the boundary.
Absolute pressure limited to 1.000000e+00 in 3151401 cells during the last 11 iterations

 absolute pressure limited to 1.000000e+00 in 286489 cells on zone 2297 

  iter  continuity  x-velocity  y-velocity  z-velocity      energy   exit-mach  exit-press      thrust     time/iter
  1121  5.2584e-03  1.6722e-03  5.7307e-04  6.0561e-04  1.6702e-03  2.9214e+00  2.9012e+01  6.1642e+00  0:20:21  379

 Artificial walls on 618 faces (100.0% area) of pressure-inlet 42 to prevent fluid from flowing out of the boundary.

 absolute pressure limited to 1.000000e+00 in 286489 cells on zone 2297 
  1122  5.2349e-03  1.6646e-03  5.7461e-04  6.0852e-04  1.6638e-03  2.9215e+00  2.9012e+01  6.1642e+00  0:20:22  378

 Artificial walls on 618 faces (100.0% area) of pressure-inlet 42 to prevent fluid from flowing out of the boundary.

 absolute pressure limited to 1.000000e+00 in 286489 cells on zone 2297 
  1123  5.2109e-03  1.6566e-03  5.7658e-04  6.1142e-04  1.6575e-03  2.9215e+00  2.9012e+01  6.1642e+00  0:20:33  377

 Artificial walls on 618 faces (100.0% area) of pressure-inlet 42 to prevent fluid from flowing out of the boundary.

 absolute pressure limited to 1.000000e+00 in 286487 cells on zone 2297 
  1124  5.1865e-03  1.6482e-03  5.7896e-04  6.1425e-04  1.6522e-03  2.9215e+00  2.9012e+01  6.1642e+00  0:20:43  376

 Artificial walls on 618 faces (100.0% area) of pressure-inlet 42 to prevent fluid from flowing out of the boundary.

 absolute pressure limited to 1.000000e+00 in 286488 cells on zone 2297 
  1125  5.1622e-03  1.6395e-03  5.8173e-04  6.1695e-04  1.6465e-03  2.9216e+00  2.9013e+01  6.1642e+00  0:20:48  375

 Artificial walls on 618 faces (100.0% area) of pressure-inlet 42 to prevent fluid from flowing out of the boundary.

 absolute pressure limited to 1.000000e+00 in 286488 cells on zone 2297 
  1126  5.1383e-03  1.6305e-03  5.8488e-04  6.1946e-04  1.6401e-03  2.9216e+00  2.9013e+01  6.1642e+00  0:20:42  374

 Artificial walls on 618 faces (100.0% area) of pressure-inlet 42 to prevent fluid from flowing out of the boundary.

 absolute pressure limited to 1.000000e+00 in 286485 cells on zone 2297 
  1127  5.1154e-03  1.6215e-03  5.8839e-04  6.2175e-04  1.6339e-03  2.9217e+00  2.9013e+01  6.1642e+00  0:20:37  373

 Artificial walls on 618 faces (100.0% area) of pressure-inlet 42 to prevent fluid from flowing out of the boundary.

 absolute pressure limited to 1.000000e+00 in 286485 cells on zone 2297 
  1128  5.0937e-03  1.6126e-03  5.9222e-04  6.2376e-04  1.6296e-03  2.9217e+00  2.9013e+01  6.1642e+00  0:20:30  372

 Artificial walls on 618 faces (100.0% area) of pressure-inlet 42 to prevent fluid from flowing out of the boundary.

 absolute pressure limited to 1.000000e+00 in 286483 cells on zone 2297 
  1129  5.0737e-03  1.6038e-03  5.9629e-04  6.2550e-04  1.6265e-03  2.9217e+00  2.9013e+01  6.1642e+00  0:20:25  371

 Artificial walls on 618 faces (100.0% area) of pressure-inlet 42 to prevent fluid from flowing out of the boundary.

 absolute pressure limited to 1.000000e+00 in 286484 cells on zone 2297 
  1130  5.0556e-03  1.5953e-03  6.0059e-04  6.2687e-04  1.6245e-03  2.9217e+00  2.9014e+01  6.1642e+00  0:20:23  370

 Artificial walls on 618 faces (100.0% area) of pressure-inlet 42 to prevent fluid from flowing out of the boundary.

 absolute pressure limited to 1.000000e+00 in 286483 cells on zone 2297 
  1131  5.0396e-03  1.5872e-03  6.0509e-04  6.2794e-04  1.6228e-03  2.9218e+00  2.9014e+01  6.1642e+00  0:20:24  369

 Artificial walls on 618 faces (100.0% area) of pressure-inlet 42 to prevent fluid from flowing out of the boundary.
Absolute pressure limited to 1.000000e+00 in 3151360 cells during the last 11 iterations

 absolute pressure limited to 1.000000e+00 in 286484 cells on zone 2297 

  iter  continuity  x-velocity  y-velocity  z-velocity      energy   exit-mach  exit-press      thrust     time/iter
  1132  5.0256e-03  1.5794e-03  6.0973e-04  6.2871e-04  1.6211e-03  2.9218e+00  2.9014e+01  6.1642e+00  0:20:19  368

 Artificial walls on 618 faces (100.0% area) of pressure-inlet 42 to prevent fluid from flowing out of the boundary.

 absolute pressure limited to 1.000000e+00 in 286483 cells on zone 2297 
  1133  5.0135e-03  1.5718e-03  6.1447e-04  6.2923e-04  1.6207e-03  2.9218e+00  2.9015e+01  6.1642e+00  0:20:14  367

 Artificial walls on 618 faces (100.0% area) of pressure-inlet 42 to prevent fluid from flowing out of the boundary.

 absolute pressure limited to 1.000000e+00 in 286483 cells on zone 2297 
  1134  5.0032e-03  1.5645e-03  6.1920e-04  6.2948e-04  1.6205e-03  2.9218e+00  2.9015e+01  6.1642e+00  0:20:02  366

 Artificial walls on 618 faces (100.0% area) of pressure-inlet 42 to prevent fluid from flowing out of the boundary.

 absolute pressure limited to 1.000000e+00 in 286483 cells on zone 2297 
  1135  4.9947e-03  1.5577e-03  6.2383e-04  6.2944e-04  1.6224e-03  2.9219e+00  2.9015e+01  6.1642e+00  0:19:54  365

 Artificial walls on 618 faces (100.0% area) of pressure-inlet 42 to prevent fluid from flowing out of the boundary.

 absolute pressure limited to 1.000000e+00 in 286482 cells on zone 2297 
  1136  4.9880e-03  1.5512e-03  6.2829e-04  6.2915e-04  1.6241e-03  2.9219e+00  2.9015e+01  6.1642e+00  0:19:52  364

 Artificial walls on 618 faces (100.0% area) of pressure-inlet 42 to prevent fluid from flowing out of the boundary.

 absolute pressure limited to 1.000000e+00 in 286481 cells on zone 2297 
  1137  4.9827e-03  1.5451e-03  6.3257e-04  6.2864e-04  1.6263e-03  2.9219e+00  2.9016e+01  6.1642e+00  0:19:40  363

 Artificial walls on 618 faces (100.0% area) of pressure-inlet 42 to prevent fluid from flowing out of the boundary.

 absolute pressure limited to 1.000000e+00 in 286483 cells on zone 2297 
  1138  4.9787e-03  1.5394e-03  6.3660e-04  6.2793e-04  1.6277e-03  2.9219e+00  2.9016e+01  6.1642e+00  0:19:35  362

 Artificial walls on 618 faces (100.0% area) of pressure-inlet 42 to prevent fluid from flowing out of the boundary.

 absolute pressure limited to 1.000000e+00 in 286483 cells on zone 2297 
  1139  4.9761e-03  1.5342e-03  6.4035e-04  6.2706e-04  1.6292e-03  2.9220e+00  2.9016e+01  6.1642e+00  0:19:30  361

 Artificial walls on 618 faces (100.0% area) of pressure-inlet 42 to prevent fluid from flowing out of the boundary.

 absolute pressure limited to 1.000000e+00 in 286483 cells on zone 2297 
  1140  4.9746e-03  1.5297e-03  6.4377e-04  6.2607e-04  1.6305e-03  2.9220e+00  2.9017e+01  6.1642e+00  0:19:21  360

 Artificial walls on 618 faces (100.0% area) of pressure-inlet 42 to prevent fluid from flowing out of the boundary.

 absolute pressure limited to 1.000000e+00 in 286480 cells on zone 2297 
  1141  4.9743e-03  1.5258e-03  6.4682e-04  6.2499e-04  1.6311e-03  2.9220e+00  2.9017e+01  6.1642e+00  0:19:15  359

 Artificial walls on 618 faces (100.0% area) of pressure-inlet 42 to prevent fluid from flowing out of the boundary.

 absolute pressure limited to 1.000000e+00 in 286480 cells on zone 2297 
  1142  4.9750e-03  1.5228e-03  6.4948e-04  6.2385e-04  1.6318e-03  2.9220e+00  2.9017e+01  6.1642e+00  0:19:20  358

 Artificial walls on 618 faces (100.0% area) of pressure-inlet 42 to prevent fluid from flowing out of the boundary.
Absolute pressure limited to 1.000000e+00 in 3151306 cells during the last 11 iterations

 absolute pressure limited to 1.000000e+00 in 286480 cells on zone 2297 

  iter  continuity  x-velocity  y-velocity  z-velocity      energy   exit-mach  exit-press      thrust     time/iter
  1143  4.9766e-03  1.5206e-03  6.5178e-04  6.2267e-04  1.6318e-03  2.9221e+00  2.9018e+01  6.1642e+00  0:19:22  357

 Artificial walls on 618 faces (100.0% area) of pressure-inlet 42 to prevent fluid from flowing out of the boundary.

 absolute pressure limited to 1.000000e+00 in 286480 cells on zone 2297 
  1144  4.9791e-03  1.5191e-03  6.5372e-04  6.2142e-04  1.6316e-03  2.9221e+00  2.9018e+01  6.1642e+00  0:19:24  356

 Artificial walls on 618 faces (100.0% area) of pressure-inlet 42 to prevent fluid from flowing out of the boundary.

 absolute pressure limited to 1.000000e+00 in 286480 cells on zone 2297 
  1145  4.9826e-03  1.5186e-03  6.5525e-04  6.2006e-04  1.6311e-03  2.9221e+00  2.9019e+01  6.1642e+00  0:20:13  355

 Artificial walls on 618 faces (100.0% area) of pressure-inlet 42 to prevent fluid from flowing out of the boundary.

 absolute pressure limited to 1.000000e+00 in 286479 cells on zone 2297 
  1146  4.9871e-03  1.5191e-03  6.5640e-04  6.1866e-04  1.6301e-03  2.9221e+00  2.9019e+01  6.1642e+00  0:20:13  354

 Artificial walls on 618 faces (100.0% area) of pressure-inlet 42 to prevent fluid from flowing out of the boundary.

 absolute pressure limited to 1.000000e+00 in 286479 cells on zone 2297 
  1147  4.9925e-03  1.5206e-03  6.5724e-04  6.1724e-04  1.6287e-03  2.9222e+00  2.9020e+01  6.1642e+00  0:20:17  353

 Artificial walls on 618 faces (100.0% area) of pressure-inlet 42 to prevent fluid from flowing out of the boundary.

 absolute pressure limited to 1.000000e+00 in 286479 cells on zone 2297 
  1148  4.9989e-03  1.5232e-03  6.5779e-04  6.1581e-04  1.6264e-03  2.9222e+00  2.9020e+01  6.1642e+00  0:20:35  352

 Artificial walls on 618 faces (100.0% area) of pressure-inlet 42 to prevent fluid from flowing out of the boundary.

 absolute pressure limited to 1.000000e+00 in 286477 cells on zone 2297 
  1149  5.0062e-03  1.5268e-03  6.5801e-04  6.1437e-04  1.6231e-03  2.9222e+00  2.9021e+01  6.1642e+00  0:20:37  351

 Artificial walls on 618 faces (100.0% area) of pressure-inlet 42 to prevent fluid from flowing out of the boundary.

 absolute pressure limited to 1.000000e+00 in 286477 cells on zone 2297 
  1150  5.0144e-03  1.5312e-03  6.5797e-04  6.1290e-04  1.6189e-03  2.9223e+00  2.9021e+01  6.1642e+00  0:20:21  350

 Artificial walls on 618 faces (100.0% area) of pressure-inlet 42 to prevent fluid from flowing out of the boundary.

 absolute pressure limited to 1.000000e+00 in 286477 cells on zone 2297 
  1151  5.0234e-03  1.5363e-03  6.5767e-04  6.1134e-04  1.6150e-03  2.9223e+00  2.9022e+01  6.1642e+00  0:20:03  349

 Artificial walls on 618 faces (100.0% area) of pressure-inlet 42 to prevent fluid from flowing out of the boundary.

 absolute pressure limited to 1.000000e+00 in 286477 cells on zone 2297 
  1152  5.0333e-03  1.5419e-03  6.5710e-04  6.0968e-04  1.6114e-03  2.9224e+00  2.9022e+01  6.1642e+00  0:20:18  348

 Artificial walls on 618 faces (100.0% area) of pressure-inlet 42 to prevent fluid from flowing out of the boundary.

 absolute pressure limited to 1.000000e+00 in 286477 cells on zone 2297 
  1153  5.0435e-03  1.5478e-03  6.5630e-04  6.0789e-04  1.6072e-03  2.9224e+00  2.9023e+01  6.1642e+00  0:20:29  347

 Artificial walls on 618 faces (100.0% area) of pressure-inlet 42 to prevent fluid from flowing out of the boundary.
Absolute pressure limited to 1.000000e+00 in 3151261 cells during the last 11 iterations

 absolute pressure limited to 1.000000e+00 in 286477 cells on zone 2297 

  iter  continuity  x-velocity  y-velocity  z-velocity      energy   exit-mach  exit-press      thrust     time/iter
  1154  5.0540e-03  1.5537e-03  6.5526e-04  6.0594e-04  1.6021e-03  2.9224e+00  2.9023e+01  6.1642e+00  0:20:17  346

 Artificial walls on 618 faces (100.0% area) of pressure-inlet 42 to prevent fluid from flowing out of the boundary.

 absolute pressure limited to 1.000000e+00 in 286476 cells on zone 2297 
  1155  5.0648e-03  1.5598e-03  6.5398e-04  6.0380e-04  1.5977e-03  2.9225e+00  2.9024e+01  6.1642e+00  0:20:00  345

 Artificial walls on 618 faces (100.0% area) of pressure-inlet 42 to prevent fluid from flowing out of the boundary.

 absolute pressure limited to 1.000000e+00 in 286476 cells on zone 2297 
  1156  5.0753e-03  1.5661e-03  6.5247e-04  6.0146e-04  1.5915e-03  2.9225e+00  2.9025e+01  6.1642e+00  0:19:42  344

 Artificial walls on 618 faces (100.0% area) of pressure-inlet 42 to prevent fluid from flowing out of the boundary.

 absolute pressure limited to 1.000000e+00 in 286475 cells on zone 2297 
  1157  5.0853e-03  1.5722e-03  6.5071e-04  5.9882e-04  1.5855e-03  2.9226e+00  2.9025e+01  6.1642e+00  0:19:23  343

 Artificial walls on 618 faces (100.0% area) of pressure-inlet 42 to prevent fluid from flowing out of the boundary.

 absolute pressure limited to 1.000000e+00 in 286474 cells on zone 2297 
  1158  5.0943e-03  1.5783e-03  6.4879e-04  5.9587e-04  1.5783e-03  2.9226e+00  2.9026e+01  6.1642e+00  0:19:00  342

 Artificial walls on 618 faces (100.0% area) of pressure-inlet 42 to prevent fluid from flowing out of the boundary.

 absolute pressure limited to 1.000000e+00 in 286474 cells on zone 2297 
  1159  5.1018e-03  1.5842e-03  6.4664e-04  5.9263e-04  1.5695e-03  2.9227e+00  2.9027e+01  6.1642e+00  0:18:42  341

 Artificial walls on 618 faces (100.0% area) of pressure-inlet 42 to prevent fluid from flowing out of the boundary.

 absolute pressure limited to 1.000000e+00 in 286474 cells on zone 2297 
  1160  5.1077e-03  1.5896e-03  6.4420e-04  5.8910e-04  1.5572e-03  2.9227e+00  2.9027e+01  6.1642e+00  0:18:25  340

 Artificial walls on 618 faces (100.0% area) of pressure-inlet 42 to prevent fluid from flowing out of the boundary.

 absolute pressure limited to 1.000000e+00 in 286472 cells on zone 2297 
  1161  5.1111e-03  1.5940e-03  6.4145e-04  5.8523e-04  1.5475e-03  2.9228e+00  2.9028e+01  6.1642e+00  0:18:13  339

 Artificial walls on 618 faces (100.0% area) of pressure-inlet 42 to prevent fluid from flowing out of the boundary.

 absolute pressure limited to 1.000000e+00 in 286471 cells on zone 2297 
  1162  5.1122e-03  1.5972e-03  6.3843e-04  5.8110e-04  1.5396e-03  2.9228e+00  2.9029e+01  6.1642e+00  0:18:01  338

 Artificial walls on 618 faces (100.0% area) of pressure-inlet 42 to prevent fluid from flowing out of the boundary.

 absolute pressure limited to 1.000000e+00 in 286473 cells on zone 2297 
  1163  5.1108e-03  1.5995e-03  6.3504e-04  5.7670e-04  1.5311e-03  2.9229e+00  2.9029e+01  6.1642e+00  0:17:50  337

 Artificial walls on 618 faces (100.0% area) of pressure-inlet 42 to prevent fluid from flowing out of the boundary.

 absolute pressure limited to 1.000000e+00 in 286473 cells on zone 2297 
  1164  5.1068e-03  1.6006e-03  6.3135e-04  5.7196e-04  1.5228e-03  2.9230e+00  2.9030e+01  6.1642e+00  0:17:41  336

 Artificial walls on 618 faces (100.0% area) of pressure-inlet 42 to prevent fluid from flowing out of the boundary.
Absolute pressure limited to 1.000000e+00 in 3151219 cells during the last 11 iterations

 absolute pressure limited to 1.000000e+00 in 286473 cells on zone 2297 

  iter  continuity  x-velocity  y-velocity  z-velocity      energy   exit-mach  exit-press      thrust     time/iter
  1165  5.1002e-03  1.6006e-03  6.2728e-04  5.6690e-04  1.5151e-03  2.9230e+00  2.9031e+01  6.1642e+00  0:17:41  335

 Artificial walls on 618 faces (100.0% area) of pressure-inlet 42 to prevent fluid from flowing out of the boundary.

 absolute pressure limited to 1.000000e+00 in 286473 cells on zone 2297 
  1166  5.0908e-03  1.5993e-03  6.2286e-04  5.6155e-04  1.5071e-03  2.9231e+00  2.9031e+01  6.1642e+00  0:17:47  334

 Artificial walls on 618 faces (100.0% area) of pressure-inlet 42 to prevent fluid from flowing out of the boundary.

 absolute pressure limited to 1.000000e+00 in 286471 cells on zone 2297 
  1167  5.0785e-03  1.5967e-03  6.1809e-04  5.5593e-04  1.4976e-03  2.9231e+00  2.9032e+01  6.1642e+00  0:17:56  333

 Artificial walls on 618 faces (100.0% area) of pressure-inlet 42 to prevent fluid from flowing out of the boundary.

 absolute pressure limited to 1.000000e+00 in 286471 cells on zone 2297 
  1168  5.0630e-03  1.5926e-03  6.1300e-04  5.5007e-04  1.4882e-03  2.9232e+00  2.9032e+01  6.1642e+00  0:18:09  332

 Artificial walls on 618 faces (100.0% area) of pressure-inlet 42 to prevent fluid from flowing out of the boundary.

 absolute pressure limited to 1.000000e+00 in 286472 cells on zone 2297 
  1169  5.0446e-03  1.5871e-03  6.0766e-04  5.4404e-04  1.4797e-03  2.9232e+00  2.9033e+01  6.1642e+00  0:18:23  331

 Artificial walls on 618 faces (100.0% area) of pressure-inlet 42 to prevent fluid from flowing out of the boundary.

 absolute pressure limited to 1.000000e+00 in 286472 cells on zone 2297 
  1170  5.0234e-03  1.5803e-03  6.0198e-04  5.3781e-04  1.4719e-03  2.9232e+00  2.9034e+01  6.1642e+00  0:18:38  330

 Artificial walls on 618 faces (100.0% area) of pressure-inlet 42 to prevent fluid from flowing out of the boundary.

 absolute pressure limited to 1.000000e+00 in 286471 cells on zone 2297 
  1171  4.9996e-03  1.5721e-03  5.9604e-04  5.3141e-04  1.4636e-03  2.9233e+00  2.9034e+01  6.1642e+00  0:18:38  329

 Artificial walls on 618 faces (100.0% area) of pressure-inlet 42 to prevent fluid from flowing out of the boundary.

 absolute pressure limited to 1.000000e+00 in 286469 cells on zone 2297 
  1172  4.9732e-03  1.5628e-03  5.8985e-04  5.2485e-04  1.4547e-03  2.9233e+00  2.9035e+01  6.1642e+00  0:18:35  328

 Artificial walls on 618 faces (100.0% area) of pressure-inlet 42 to prevent fluid from flowing out of the boundary.

 absolute pressure limited to 1.000000e+00 in 286470 cells on zone 2297 
  1173  4.9441e-03  1.5523e-03  5.8349e-04  5.1814e-04  1.4473e-03  2.9234e+00  2.9035e+01  6.1642e+00  0:18:25  327

 Artificial walls on 618 faces (100.0% area) of pressure-inlet 42 to prevent fluid from flowing out of the boundary.

 absolute pressure limited to 1.000000e+00 in 286470 cells on zone 2297 
  1174  4.9131e-03  1.5408e-03  5.7699e-04  5.1136e-04  1.4412e-03  2.9234e+00  2.9035e+01  6.1642e+00  0:18:16  326

 Artificial walls on 618 faces (100.0% area) of pressure-inlet 42 to prevent fluid from flowing out of the boundary.

 absolute pressure limited to 1.000000e+00 in 286469 cells on zone 2297 
  1175  4.8803e-03  1.5285e-03  5.7036e-04  5.0455e-04  1.4363e-03  2.9234e+00  2.9036e+01  6.1642e+00  0:18:04  325

 Artificial walls on 618 faces (100.0% area) of pressure-inlet 42 to prevent fluid from flowing out of the boundary.
Absolute pressure limited to 1.000000e+00 in 3151191 cells during the last 11 iterations

 absolute pressure limited to 1.000000e+00 in 286469 cells on zone 2297 

  iter  continuity  x-velocity  y-velocity  z-velocity      energy   exit-mach  exit-press      thrust     time/iter
  1176  4.8460e-03  1.5155e-03  5.6362e-04  4.9778e-04  1.4321e-03  2.9234e+00  2.9036e+01  6.1642e+00  0:17:57  324

 Artificial walls on 618 faces (100.0% area) of pressure-inlet 42 to prevent fluid from flowing out of the boundary.

 absolute pressure limited to 1.000000e+00 in 286468 cells on zone 2297 
  1177  4.8104e-03  1.5020e-03  5.5680e-04  4.9109e-04  1.4281e-03  2.9234e+00  2.9036e+01  6.1642e+00  0:17:55  323

 Artificial walls on 618 faces (100.0% area) of pressure-inlet 42 to prevent fluid from flowing out of the boundary.

 absolute pressure limited to 1.000000e+00 in 286466 cells on zone 2297 
  1178  4.7738e-03  1.4880e-03  5.4990e-04  4.8457e-04  1.4224e-03  2.9234e+00  2.9037e+01  6.1642e+00  0:18:24  322

 Artificial walls on 618 faces (100.0% area) of pressure-inlet 42 to prevent fluid from flowing out of the boundary.

 absolute pressure limited to 1.000000e+00 in 286465 cells on zone 2297 
  1179  4.7360e-03  1.4733e-03  5.4287e-04  4.7824e-04  1.4183e-03  2.9234e+00  2.9037e+01  6.1642e+00  0:18:16  321

 Artificial walls on 618 faces (100.0% area) of pressure-inlet 42 to prevent fluid from flowing out of the boundary.

 absolute pressure limited to 1.000000e+00 in 286466 cells on zone 2297 
  1180  4.6977e-03  1.4582e-03  5.3572e-04  4.7216e-04  1.4158e-03  2.9234e+00  2.9037e+01  6.1642e+00  0:18:04  320

 Artificial walls on 618 faces (100.0% area) of pressure-inlet 42 to prevent fluid from flowing out of the boundary.

 absolute pressure limited to 1.000000e+00 in 286467 cells on zone 2297 
  1181  4.6593e-03  1.4428e-03  5.2853e-04  4.6628e-04  1.4142e-03  2.9234e+00  2.9037e+01  6.1642e+00  0:17:51  319

 Artificial walls on 618 faces (100.0% area) of pressure-inlet 42 to prevent fluid from flowing out of the boundary.

 absolute pressure limited to 1.000000e+00 in 286465 cells on zone 2297 
  1182  4.6213e-03  1.4272e-03  5.2141e-04  4.6061e-04  1.4133e-03  2.9234e+00  2.9037e+01  6.1642e+00  0:17:44  318

 Artificial walls on 618 faces (100.0% area) of pressure-inlet 42 to prevent fluid from flowing out of the boundary.

 absolute pressure limited to 1.000000e+00 in 286464 cells on zone 2297 
  1183  4.5838e-03  1.4117e-03  5.1447e-04  4.5514e-04  1.4123e-03  2.9234e+00  2.9037e+01  6.1642e+00  0:17:38  317

 Artificial walls on 618 faces (100.0% area) of pressure-inlet 42 to prevent fluid from flowing out of the boundary.

 absolute pressure limited to 1.000000e+00 in 286464 cells on zone 2297 
  1184  4.5468e-03  1.3962e-03  5.0768e-04  4.4996e-04  1.4124e-03  2.9233e+00  2.9037e+01  6.1642e+00  0:17:25  316

 Artificial walls on 618 faces (100.0% area) of pressure-inlet 42 to prevent fluid from flowing out of the boundary.

 absolute pressure limited to 1.000000e+00 in 286464 cells on zone 2297 
  1185  4.5105e-03  1.3807e-03  5.0121e-04  4.4501e-04  1.4127e-03  2.9233e+00  2.9037e+01  6.1642e+00  0:17:14  315

 Artificial walls on 618 faces (100.0% area) of pressure-inlet 42 to prevent fluid from flowing out of the boundary.

[...]

 absolute pressure limited to 1.000000e+00 in 286417 cells on zone 2297 
  1443  1.4088e-03  4.1153e-04  9.4120e-05  1.0211e-04  4.3500e-04  2.9221e+00  2.8980e+01  6.1642e+00  0:03:57   57

 Artificial walls on 618 faces (100.0% area) of pressure-inlet 42 to prevent fluid from flowing out of the boundary.

 absolute pressure limited to 1.000000e+00 in 286416 cells on zone 2297 
  1444  1.4036e-03  4.0946e-04  9.3030e-05  1.0122e-04  4.3908e-04  2.9221e+00  2.8980e+01  6.1642e+00  0:03:54   56

 Artificial walls on 618 faces (100.0% area) of pressure-inlet 42 to prevent fluid from flowing out of the boundary.

 absolute pressure limited to 1.000000e+00 in 286416 cells on zone 2297 
  1445  1.3984e-03  4.0730e-04  9.2065e-05  1.0050e-04  4.3627e-04  2.9221e+00  2.8980e+01  6.1642e+00  0:03:52   55

 Artificial walls on 618 faces (100.0% area) of pressure-inlet 42 to prevent fluid from flowing out of the boundary.

 absolute pressure limited to 1.000000e+00 in 286416 cells on zone 2297 
  1446  1.3930e-03  4.0507e-04  9.1213e-05  9.9918e-05  4.3347e-04  2.9222e+00  2.8980e+01  6.1642e+00  0:03:53   54

 Artificial walls on 618 faces (100.0% area) of pressure-inlet 42 to prevent fluid from flowing out of the boundary.

 absolute pressure limited to 1.000000e+00 in 286417 cells on zone 2297 
  1447  1.3879e-03  4.0292e-04  9.0373e-05  9.9388e-05  4.3918e-04  2.9222e+00  2.8980e+01  6.1642e+00  0:03:54   53

 Artificial walls on 618 faces (100.0% area) of pressure-inlet 42 to prevent fluid from flowing out of the boundary.

 absolute pressure limited to 1.000000e+00 in 286416 cells on zone 2297 
  1448  1.3830e-03  4.0078e-04  8.9653e-05  9.9001e-05  4.3415e-04  2.9222e+00  2.8980e+01  6.1642e+00  0:03:51   52

 Artificial walls on 618 faces (100.0% area) of pressure-inlet 42 to prevent fluid from flowing out of the boundary.

 absolute pressure limited to 1.000000e+00 in 286416 cells on zone 2297 
  1449  1.3782e-03  3.9860e-04  8.9081e-05  9.8774e-05  4.3428e-04  2.9222e+00  2.8979e+01  6.1642e+00  0:03:57   51

 Artificial walls on 618 faces (100.0% area) of pressure-inlet 42 to prevent fluid from flowing out of the boundary.

 absolute pressure limited to 1.000000e+00 in 286416 cells on zone 2297 
  1450  1.3733e-03  3.9640e-04  8.8628e-05  9.8675e-05  4.3412e-04  2.9223e+00  2.8979e+01  6.1642e+00  0:03:51   50

 Artificial walls on 618 faces (100.0% area) of pressure-inlet 42 to prevent fluid from flowing out of the boundary.
Absolute pressure limited to 1.000000e+00 in 3150591 cells during the last 11 iterations

 absolute pressure limited to 1.000000e+00 in 286416 cells on zone 2297 

  iter  continuity  x-velocity  y-velocity  z-velocity      energy   exit-mach  exit-press      thrust     time/iter
  1451  1.3685e-03  3.9419e-04  8.8263e-05  9.8674e-05  4.3452e-04  2.9223e+00  2.8979e+01  6.1642e+00  0:03:45   49

 Artificial walls on 618 faces (100.0% area) of pressure-inlet 42 to prevent fluid from flowing out of the boundary.

 absolute pressure limited to 1.000000e+00 in 286416 cells on zone 2297 
  1452  1.3633e-03  3.9187e-04  8.8026e-05  9.8797e-05  4.3660e-04  2.9223e+00  2.8979e+01  6.1642e+00  0:03:39   48

 Artificial walls on 618 faces (100.0% area) of pressure-inlet 42 to prevent fluid from flowing out of the boundary.

 absolute pressure limited to 1.000000e+00 in 286416 cells on zone 2297 
  1453  1.3578e-03  3.8947e-04  8.7867e-05  9.8993e-05  4.3441e-04  2.9223e+00  2.8979e+01  6.1642e+00  0:03:33   47

 Artificial walls on 618 faces (100.0% area) of pressure-inlet 42 to prevent fluid from flowing out of the boundary.

 absolute pressure limited to 1.000000e+00 in 286415 cells on zone 2297 
  1454  1.3521e-03  3.8703e-04  8.7728e-05  9.9208e-05  4.3391e-04  2.9224e+00  2.8979e+01  6.1642e+00  0:03:27   46

 Artificial walls on 618 faces (100.0% area) of pressure-inlet 42 to prevent fluid from flowing out of the boundary.

 absolute pressure limited to 1.000000e+00 in 286415 cells on zone 2297 
  1455  1.3465e-03  3.8466e-04  8.7556e-05  9.9394e-05  4.3654e-04  2.9224e+00  2.8979e+01  6.1642e+00  0:03:24   45

 Artificial walls on 618 faces (100.0% area) of pressure-inlet 42 to prevent fluid from flowing out of the boundary.

 absolute pressure limited to 1.000000e+00 in 286416 cells on zone 2297 
  1456  1.3409e-03  3.8227e-04  8.7453e-05  9.9634e-05  4.3703e-04  2.9224e+00  2.8979e+01  6.1642e+00  0:03:22   44

 Artificial walls on 618 faces (100.0% area) of pressure-inlet 42 to prevent fluid from flowing out of the boundary.

 absolute pressure limited to 1.000000e+00 in 286416 cells on zone 2297 
  1457  1.3352e-03  3.7991e-04  8.7384e-05  9.9892e-05  4.3562e-04  2.9224e+00  2.8979e+01  6.1642e+00  0:03:14   43

 Artificial walls on 618 faces (100.0% area) of pressure-inlet 42 to prevent fluid from flowing out of the boundary.

 absolute pressure limited to 1.000000e+00 in 286415 cells on zone 2297 
  1458  1.3297e-03  3.7764e-04  8.7322e-05  1.0014e-04  4.3630e-04  2.9224e+00  2.8979e+01  6.1642e+00  0:03:04   42

 Artificial walls on 618 faces (100.0% area) of pressure-inlet 42 to prevent fluid from flowing out of the boundary.

 absolute pressure limited to 1.000000e+00 in 286415 cells on zone 2297 
  1459  1.3242e-03  3.7548e-04  8.7255e-05  1.0036e-04  4.3719e-04  2.9225e+00  2.8979e+01  6.1642e+00  0:02:55   41

 Artificial walls on 618 faces (100.0% area) of pressure-inlet 42 to prevent fluid from flowing out of the boundary.

 absolute pressure limited to 1.000000e+00 in 286415 cells on zone 2297 
  1460  1.3191e-03  3.7350e-04  8.7157e-05  1.0053e-04  4.3934e-04  2.9225e+00  2.8978e+01  6.1642e+00  0:02:42   40

 Artificial walls on 618 faces (100.0% area) of pressure-inlet 42 to prevent fluid from flowing out of the boundary.

 absolute pressure limited to 1.000000e+00 in 286414 cells on zone 2297 
  1461  1.3143e-03  3.7168e-04  8.7056e-05  1.0067e-04  4.4007e-04  2.9225e+00  2.8978e+01  6.1642e+00  0:02:29   39

 Artificial walls on 618 faces (100.0% area) of pressure-inlet 42 to prevent fluid from flowing out of the boundary.
Absolute pressure limited to 1.000000e+00 in 3150576 cells during the last 11 iterations

 absolute pressure limited to 1.000000e+00 in 286414 cells on zone 2297 

  iter  continuity  x-velocity  y-velocity  z-velocity      energy   exit-mach  exit-press      thrust     time/iter
  1462  1.3096e-03  3.7000e-04  8.6974e-05  1.0079e-04  4.4196e-04  2.9225e+00  2.8978e+01  6.1642e+00  0:02:21   38

 Artificial walls on 618 faces (100.0% area) of pressure-inlet 42 to prevent fluid from flowing out of the boundary.

 absolute pressure limited to 1.000000e+00 in 286413 cells on zone 2297 
  1463  1.3051e-03  3.6853e-04  8.6854e-05  1.0084e-04  4.4259e-04  2.9225e+00  2.8978e+01  6.1642e+00  0:02:14   37

 Artificial walls on 618 faces (100.0% area) of pressure-inlet 42 to prevent fluid from flowing out of the boundary.

 absolute pressure limited to 1.000000e+00 in 286413 cells on zone 2297 
  1464  1.3009e-03  3.6725e-04  8.6691e-05  1.0081e-04  4.4353e-04  2.9225e+00  2.8978e+01  6.1642e+00  0:02:07   36

 Artificial walls on 618 faces (100.0% area) of pressure-inlet 42 to prevent fluid from flowing out of the boundary.

 absolute pressure limited to 1.000000e+00 in 286414 cells on zone 2297 
  1465  1.2970e-03  3.6622e-04  8.6460e-05  1.0068e-04  4.4669e-04  2.9225e+00  2.8978e+01  6.1642e+00  0:02:02   35

 Artificial walls on 618 faces (100.0% area) of pressure-inlet 42 to prevent fluid from flowing out of the boundary.

 absolute pressure limited to 1.000000e+00 in 286414 cells on zone 2297 
  1466  1.2934e-03  3.6541e-04  8.6188e-05  1.0047e-04  4.4727e-04  2.9225e+00  2.8978e+01  6.1642e+00  0:01:56   34

 Artificial walls on 618 faces (100.0% area) of pressure-inlet 42 to prevent fluid from flowing out of the boundary.

 absolute pressure limited to 1.000000e+00 in 286414 cells on zone 2297 
  1467  1.2902e-03  3.6480e-04  8.5878e-05  1.0019e-04  4.4872e-04  2.9225e+00  2.8978e+01  6.1642e+00  0:01:52   33

 Artificial walls on 618 faces (100.0% area) of pressure-inlet 42 to prevent fluid from flowing out of the boundary.

 absolute pressure limited to 1.000000e+00 in 286414 cells on zone 2297 
  1468  1.2871e-03  3.6436e-04  8.5530e-05  9.9827e-05  4.4985e-04  2.9226e+00  2.8978e+01  6.1642e+00  0:01:48   32

 Artificial walls on 618 faces (100.0% area) of pressure-inlet 42 to prevent fluid from flowing out of the boundary.

 absolute pressure limited to 1.000000e+00 in 286414 cells on zone 2297 
  1469  1.2841e-03  3.6409e-04  8.5121e-05  9.9368e-05  4.4987e-04  2.9226e+00  2.8978e+01  6.1642e+00  0:01:44   31

 Artificial walls on 618 faces (100.0% area) of pressure-inlet 42 to prevent fluid from flowing out of the boundary.

 absolute pressure limited to 1.000000e+00 in 286414 cells on zone 2297 
  1470  1.2812e-03  3.6400e-04  8.4641e-05  9.8805e-05  4.5033e-04  2.9226e+00  2.8978e+01  6.1642e+00  0:01:40   30

 Artificial walls on 618 faces (100.0% area) of pressure-inlet 42 to prevent fluid from flowing out of the boundary.

 absolute pressure limited to 1.000000e+00 in 286414 cells on zone 2297 
  1471  1.2785e-03  3.6408e-04  8.4083e-05  9.8137e-05  4.5159e-04  2.9226e+00  2.8978e+01  6.1642e+00  0:01:37   29

 Artificial walls on 618 faces (100.0% area) of pressure-inlet 42 to prevent fluid from flowing out of the boundary.

 absolute pressure limited to 1.000000e+00 in 286414 cells on zone 2297 
  1472  1.2761e-03  3.6431e-04  8.3476e-05  9.7386e-05  4.5161e-04  2.9226e+00  2.8978e+01  6.1642e+00  0:01:34   28

 Artificial walls on 618 faces (100.0% area) of pressure-inlet 42 to prevent fluid from flowing out of the boundary.
Absolute pressure limited to 1.000000e+00 in 3150558 cells during the last 11 iterations

 absolute pressure limited to 1.000000e+00 in 286414 cells on zone 2297 

  iter  continuity  x-velocity  y-velocity  z-velocity      energy   exit-mach  exit-press      thrust     time/iter
  1473  1.2737e-03  3.6466e-04  8.2835e-05  9.6567e-05  4.5127e-04  2.9226e+00  2.8978e+01  6.1642e+00  0:01:31   27

 Artificial walls on 618 faces (100.0% area) of pressure-inlet 42 to prevent fluid from flowing out of the boundary.

 absolute pressure limited to 1.000000e+00 in 286413 cells on zone 2297 
  1474  1.2714e-03  3.6513e-04  8.2142e-05  9.5672e-05  4.5070e-04  2.9226e+00  2.8977e+01  6.1642e+00  0:01:27   26

 Artificial walls on 618 faces (100.0% area) of pressure-inlet 42 to prevent fluid from flowing out of the boundary.

 absolute pressure limited to 1.000000e+00 in 286413 cells on zone 2297 
  1475  1.2693e-03  3.6572e-04  8.1405e-05  9.4718e-05  4.4991e-04  2.9226e+00  2.8977e+01  6.1642e+00  0:01:24   25

 Artificial walls on 618 faces (100.0% area) of pressure-inlet 42 to prevent fluid from flowing out of the boundary.

 absolute pressure limited to 1.000000e+00 in 286413 cells on zone 2297 
  1476  1.2673e-03  3.6640e-04  8.0646e-05  9.3723e-05  4.4906e-04  2.9226e+00  2.8977e+01  6.1642e+00  0:01:21   24

 Artificial walls on 618 faces (100.0% area) of pressure-inlet 42 to prevent fluid from flowing out of the boundary.

 absolute pressure limited to 1.000000e+00 in 286413 cells on zone 2297 
  1477  1.2654e-03  3.6717e-04  7.9881e-05  9.2701e-05  4.4786e-04  2.9226e+00  2.8977e+01  6.1642e+00  0:01:19   23

 Artificial walls on 618 faces (100.0% area) of pressure-inlet 42 to prevent fluid from flowing out of the boundary.

 absolute pressure limited to 1.000000e+00 in 286413 cells on zone 2297 
  1478  1.2637e-03  3.6800e-04  7.9126e-05  9.1667e-05  4.4634e-04  2.9226e+00  2.8977e+01  6.1642e+00  0:01:16   22

 Artificial walls on 618 faces (100.0% area) of pressure-inlet 42 to prevent fluid from flowing out of the boundary.

 absolute pressure limited to 1.000000e+00 in 286413 cells on zone 2297 
  1479  1.2622e-03  3.6889e-04  7.8386e-05  9.0635e-05  4.4467e-04  2.9225e+00  2.8977e+01  6.1642e+00  0:01:12   21

 Artificial walls on 618 faces (100.0% area) of pressure-inlet 42 to prevent fluid from flowing out of the boundary.

 absolute pressure limited to 1.000000e+00 in 286413 cells on zone 2297 
  1480  1.2608e-03  3.6981e-04  7.7681e-05  8.9628e-05  4.4244e-04  2.9225e+00  2.8977e+01  6.1642e+00  0:01:07   20

 Artificial walls on 618 faces (100.0% area) of pressure-inlet 42 to prevent fluid from flowing out of the boundary.

 absolute pressure limited to 1.000000e+00 in 286413 cells on zone 2297 
  1481  1.2595e-03  3.7073e-04  7.7030e-05  8.8660e-05  4.3963e-04  2.9225e+00  2.8977e+01  6.1642e+00  0:01:03   19

 Artificial walls on 618 faces (100.0% area) of pressure-inlet 42 to prevent fluid from flowing out of the boundary.

 absolute pressure limited to 1.000000e+00 in 286413 cells on zone 2297 
  1482  1.2584e-03  3.7168e-04  7.6424e-05  8.7730e-05  4.3712e-04  2.9225e+00  2.8977e+01  6.1642e+00  0:00:59   18

 Artificial walls on 618 faces (100.0% area) of pressure-inlet 42 to prevent fluid from flowing out of the boundary.

 absolute pressure limited to 1.000000e+00 in 286413 cells on zone 2297 
  1483  1.2575e-03  3.7263e-04  7.5883e-05  8.6858e-05  4.3399e-04  2.9225e+00  2.8977e+01  6.1642e+00  0:00:55   17

 Artificial walls on 618 faces (100.0% area) of pressure-inlet 42 to prevent fluid from flowing out of the boundary.
Absolute pressure limited to 1.000000e+00 in 3150548 cells during the last 11 iterations

 absolute pressure limited to 1.000000e+00 in 286413 cells on zone 2297 

  iter  continuity  x-velocity  y-velocity  z-velocity      energy   exit-mach  exit-press      thrust     time/iter
  1484  1.2568e-03  3.7357e-04  7.5428e-05  8.6065e-05  4.3072e-04  2.9225e+00  2.8977e+01  6.1642e+00  0:00:53   16

 Artificial walls on 618 faces (100.0% area) of pressure-inlet 42 to prevent fluid from flowing out of the boundary.

 absolute pressure limited to 1.000000e+00 in 286412 cells on zone 2297 
  1485  1.2564e-03  3.7450e-04  7.5068e-05  8.5362e-05  4.2714e-04  2.9225e+00  2.8977e+01  6.1642e+00  0:00:48   15

 Artificial walls on 618 faces (100.0% area) of pressure-inlet 42 to prevent fluid from flowing out of the boundary.

 absolute pressure limited to 1.000000e+00 in 286412 cells on zone 2297 
  1486  1.2562e-03  3.7541e-04  7.4810e-05  8.4756e-05  4.2339e-04  2.9225e+00  2.8977e+01  6.1642e+00  0:00:45   14

 Artificial walls on 618 faces (100.0% area) of pressure-inlet 42 to prevent fluid from flowing out of the boundary.

 absolute pressure limited to 1.000000e+00 in 286413 cells on zone 2297 
  1487  1.2562e-03  3.7626e-04  7.4684e-05  8.4275e-05  4.1955e-04  2.9225e+00  2.8977e+01  6.1642e+00  0:00:42   13

 Artificial walls on 618 faces (100.0% area) of pressure-inlet 42 to prevent fluid from flowing out of the boundary.

 absolute pressure limited to 1.000000e+00 in 286414 cells on zone 2297 
  1488  1.2563e-03  3.7706e-04  7.4668e-05  8.3899e-05  4.1385e-04  2.9225e+00  2.8977e+01  6.1642e+00  0:00:39   12

 Artificial walls on 618 faces (100.0% area) of pressure-inlet 42 to prevent fluid from flowing out of the boundary.

 absolute pressure limited to 1.000000e+00 in 286414 cells on zone 2297 
  1489  1.2566e-03  3.7782e-04  7.4749e-05  8.3616e-05  4.0939e-04  2.9225e+00  2.8977e+01  6.1642e+00  0:00:35   11

 Artificial walls on 618 faces (100.0% area) of pressure-inlet 42 to prevent fluid from flowing out of the boundary.

 absolute pressure limited to 1.000000e+00 in 286414 cells on zone 2297 
  1490  1.2573e-03  3.7855e-04  7.4916e-05  8.3415e-05  4.0566e-04  2.9225e+00  2.8977e+01  6.1642e+00  0:00:32   10

 Artificial walls on 618 faces (100.0% area) of pressure-inlet 42 to prevent fluid from flowing out of the boundary.

 absolute pressure limited to 1.000000e+00 in 286413 cells on zone 2297 
  1491  1.2583e-03  3.7925e-04  7.5191e-05  8.3318e-05  4.0116e-04  2.9225e+00  2.8977e+01  6.1642e+00  0:00:29    9

 Artificial walls on 618 faces (100.0% area) of pressure-inlet 42 to prevent fluid from flowing out of the boundary.

 absolute pressure limited to 1.000000e+00 in 286413 cells on zone 2297 
  1492  1.2596e-03  3.7992e-04  7.5573e-05  8.3326e-05  3.9684e-04  2.9225e+00  2.8977e+01  6.1642e+00  0:00:26    8

 Artificial walls on 618 faces (100.0% area) of pressure-inlet 42 to prevent fluid from flowing out of the boundary.

 absolute pressure limited to 1.000000e+00 in 286412 cells on zone 2297 
  1493  1.2612e-03  3.8059e-04  7.6033e-05  8.3411e-05  3.9340e-04  2.9225e+00  2.8977e+01  6.1642e+00  0:00:23    7

 Artificial walls on 618 faces (100.0% area) of pressure-inlet 42 to prevent fluid from flowing out of the boundary.

 absolute pressure limited to 1.000000e+00 in 286411 cells on zone 2297 
  1494  1.2632e-03  3.8125e-04  7.6578e-05  8.3580e-05  3.8926e-04  2.9225e+00  2.8977e+01  6.1642e+00  0:00:19    6

 Artificial walls on 618 faces (100.0% area) of pressure-inlet 42 to prevent fluid from flowing out of the boundary.
Absolute pressure limited to 1.000000e+00 in 3150550 cells during the last 11 iterations

 absolute pressure limited to 1.000000e+00 in 286413 cells on zone 2297 

  iter  continuity  x-velocity  y-velocity  z-velocity      energy   exit-mach  exit-press      thrust     time/iter
  1495  1.2657e-03  3.8193e-04  7.7181e-05  8.3804e-05  3.8672e-04  2.9225e+00  2.8977e+01  6.1642e+00  0:00:16    5

 Artificial walls on 618 faces (100.0% area) of pressure-inlet 42 to prevent fluid from flowing out of the boundary.

 absolute pressure limited to 1.000000e+00 in 286414 cells on zone 2297 
  1496  1.2684e-03  3.8256e-04  7.7887e-05  8.4130e-05  3.8331e-04  2.9225e+00  2.8977e+01  6.1642e+00  0:00:13    4

 Artificial walls on 618 faces (100.0% area) of pressure-inlet 42 to prevent fluid from flowing out of the boundary.

 absolute pressure limited to 1.000000e+00 in 286413 cells on zone 2297 
  1497  1.2711e-03  3.8310e-04  7.8690e-05  8.4550e-05  3.7951e-04  2.9225e+00  2.8977e+01  6.1642e+00  0:00:10    3

 Artificial walls on 618 faces (100.0% area) of pressure-inlet 42 to prevent fluid from flowing out of the boundary.

 absolute pressure limited to 1.000000e+00 in 286413 cells on zone 2297 
  1498  1.2740e-03  3.8364e-04  7.9460e-05  8.4932e-05  3.7749e-04  2.9225e+00  2.8976e+01  6.1642e+00  0:00:07    2

 Artificial walls on 618 faces (100.0% area) of pressure-inlet 42 to prevent fluid from flowing out of the boundary.

 absolute pressure limited to 1.000000e+00 in 286413 cells on zone 2297 
  1499  1.2772e-03  3.8420e-04  8.0203e-05  8.5285e-05  3.7262e-04  2.9225e+00  2.8976e+01  6.1642e+00  0:00:03    1

 Artificial walls on 618 faces (100.0% area) of pressure-inlet 42 to prevent fluid from flowing out of the boundary.

 absolute pressure limited to 1.000000e+00 in 286413 cells on zone 2297 
  1500  1.2807e-03  3.8477e-04  8.0936e-05  8.5626e-05  3.7056e-04  2.9225e+00  2.8976e+01  6.1642e+00  0:00:00    0

Calculation complete.
(cx-gui-do cx-activate-item "Information*OK")
(cx-gui-do cx-activate-item "MenuBar*WriteSubMenu*Case & Data...")
(cx-gui-do cx-set-file-dialog-entries "Select File" '( "Nozzle_axial_1500iterations.cas.h5") "CFF Case/Data Files (*.cas.h5 *.dat.h5 )")

Writing to SimonAsusLaptop:"C:/Users/Simon/Projects/MEng Electronics/Development of a Resistojet Thruster/2) Simulations/CFD/Nozzle_axial_1500iterations.cas.h5" in NODE0 mode and compression level 1 ...
Grouping cells for Laplace smoothing ...
      487606 cells,     3 zones ...
     2290794 faces,    12 zones ...
     1431185 nodes,     1 zone  ...
  Done.

  Writing boundary layer flags ...
  Done.
Done.

Writing to SimonAsusLaptop:"C:/Users/Simon/Projects/MEng Electronics/Development of a Resistojet Thruster/2) Simulations/CFD/Nozzle_axial_1500iterations.dat.h5" in NODE0 mode and compression level 1 ...
  Writing results.
Done.
/exit y

Posting ANSYS Product Improvement Program performance data 
Done.
Auto-Transcript Stop Time:  18:52:35, 14 Jul 2026 South Africa Standard Time 
Total Transcript Time: 1 Hour 2 Minute 17 Second.
