Auto-Transcript Start Time:  10:55:29, 18 Jul 2026 South Africa Standard Time 
Current Directory: "C:\Users\Simon\Projects\MEng Electronics\Development of a Resistojet Thruster\2) Simulations\CFD"

              Welcome to ANSYS Fluent 2026 R1

              Copyright 2026 Synopsys, Inc. and ANSYS, Inc. All rights reserved.
              Unauthorized use, distribution or duplication is prohibited.
              This product is subject to U.S. laws governing export and re-export.
              For full Legal Notice, see documentation.

Build Time: Feb  2 2026 16:27:16 EST  Build Id: 10262  
 
Connected License Server List:	<Non FlexNet Publisher License Server (FNPLS)>

     --------------------------------------------------------------
     This is a student version of ANSYS FLUENT. Usage of this product
     license is limited to the terms and conditions specified in your ANSYS
     license form, additional terms section.
     --------------------------------------------------------------
Host spawning Node 0 on machine "SimonAsusLaptop" (win64).
Host waiting for connection from Node 0 at 127.0.0.1:60010 

Node 0 connecting to the Host ... connection established.

------------------------------------------------------------------------------------------
ID    Hostname         Core  O.S.         PID    CPU Model Name                          
------------------------------------------------------------------------------------------
n3    SimonAsusLaptop  4/20  Windows-x64  9532   12th Gen Intel(R) Core(TM) i7-12700H    
n2    SimonAsusLaptop  3/20  Windows-x64  25356  12th Gen Intel(R) Core(TM) i7-12700H    
n1    SimonAsusLaptop  2/20  Windows-x64  25084  12th Gen Intel(R) Core(TM) i7-12700H    
n0*   SimonAsusLaptop  1/20  Windows-x64  10796  12th Gen Intel(R) Core(TM) i7-12700H    
host  SimonAsusLaptop        Windows-x64  31112  12th Gen Intel(R) Core(TM) i7-12700H    

MPI Option Selected: intel
Selected system interconnect: default
------------------------------------------------------------------------------------------

Cleanup script file is C:\\Users\\Simon\\Projects\\MEng Electronics\\Development of a Resistojet Thruster\\2) Simulations\\CFD\\cleanup-fluent-SimonAsusLaptop-31112.bat

SimonAsusLaptop is already loaded (24.5558).                       Process affinity not being set.

Graphics driver currently in use: dx11


Posting ANSYS Product Improvement Program startup data
Done.

> (cx-gui-do cx-activate-item "MenuBar*ReadSubMenu*Case & Data...")
(cx-gui-do cx-set-file-dialog-entries "Select File" '( "C:/Users/Simon/Projects/MEng Electronics/Development of a Resistojet Thruster/2) Simulations/CFD/2D Nozzle Simulation/2DNozzle_2_12000.cas.h5") "CFF Case Files (*.cas.h5 )")
Fast-loading "C:\PROGRA~1\ANSYSI~1\ANSYSS~1\v261\fluent\fluent26.1.0\\addons\afd\lib\hdfio.bin"
Done.

Reading from SimonAsusLaptop:"C:/Users/Simon/Projects/MEng Electronics/Development of a Resistojet Thruster/2) Simulations/CFD/2D Nozzle Simulation/2DNozzle_2_12000.cas.h5" in NODE0 mode ...
  Reading mesh ...
      234568 cells,     2 cell zones ...
         187566 mixed cells,  zone id: 94
          47002 mixed cells,  zone id: 100
      470119 faces,    10 face zones ...
            400 2D axis faces,  zone id: 1
             63 2D pressure-inlet faces,  zone id: 41
             62 2D interior faces,  zone id: 43
           3775 2D wall faces,  zone id: 44
           2149 2D wall faces,  zone id: 46
            431 2D axis faces,  zone id: 47
            641 2D pressure-outlet faces,  zone id: 50
            144 2D wall faces,  zone id: 52
         369151 2D interior faces,  zone id: 501
          93303 2D interior faces,  zone id: 502
      235552 nodes,     1 node zone  ...
  Done.


Building...
     mesh
	distributing mesh
		parts....,
		faces....,
		nodes....,
		cells....,
        bandwidth reduction using Reverse Cuthill-McKee: 59174/950 = 62.2884
     materials,
     interface,
     domains,
	mixture
     zones,
	axis-1
	interior:fluid
	interior:vacuum
	inlet
	outlet
	divergingside
	convergingside
	axis
	vacuumboundaries
	outsidewall
	fluid
	vacuum
     parallel,
Done.

Reading from SimonAsusLaptop:"C:/Users/Simon/Projects/MEng Electronics/Development of a Resistojet Thruster/2) Simulations/CFD/2D Nozzle Simulation/2DNozzle_2_12000.dat.h5" in NODE0 mode ...


  Reading results.
Parallel variables...
Done.
(cx-use-window-id 51)
(cx-gui-do cx-activate-item "Ribbon*Frame1*Frame5(Solution)*Table1*PushButton1(Run Calculation)")
(cx-gui-do cx-set-integer-entry "Ribbon*Frame1*Frame5(Solution)*Table1*Table3(Run Calculation)*Table6*IntegerEntry16(No  of Iterations)" 8000)
(cx-gui-do cx-activate-item "Ribbon*Frame1*Frame5(Solution)*Table1*Table3(Run Calculation)*Table6*IntegerEntry16(No  of Iterations)")
(cx-gui-do cx-activate-item "Ribbon*Frame1*Frame5(Solution)*Table1*Table3(Run Calculation)*PushButton9(Calculate)")


  iter  continuity  x-velocity  y-velocity      energy           k       omega  exit-stati   exit-mach  mass-flow-  mass-flow-     time/iter
 12000  7.7600e-05  2.1872e-06  2.3065e-06  1.8707e-05  2.2801e-05  2.8749e-05  3.0688e+01  3.9724e+00  4.3676e-05  4.3676e-05  0:00:00 8000

 Reversed flow on 1 face (0.1% area) of pressure-outlet 50.

 absolute pressure limited to 1.000000e+00 in 39170 cells on zone 100 
 12001  7.7590e-05  2.1868e-06  2.3062e-06  1.8705e-05  2.2801e-05  2.8745e-05  3.0687e+01  3.9724e+00  4.3676e-05  4.3676e-05  1:15:50 7999

 Reversed flow on 1 face (0.1% area) of pressure-outlet 50.

 absolute pressure limited to 1.000000e+00 in 39170 cells on zone 100 
 12002  7.7580e-05  2.1864e-06  2.3058e-06  1.8702e-05  2.2800e-05  2.8742e-05  3.0687e+01  3.9724e+00  4.3676e-05  4.3676e-05  3:14:42 7998

 Reversed flow on 1 face (0.1% area) of pressure-outlet 50.

 absolute pressure limited to 1.000000e+00 in 39170 cells on zone 100 
 12003  7.7570e-05  2.1860e-06  2.3055e-06  1.8699e-05  2.2800e-05  2.8738e-05  3.0687e+01  3.9724e+00  4.3676e-05  4.3676e-05  2:58:30 7997

 Reversed flow on 1 face (0.1% area) of pressure-outlet 50.

 absolute pressure limited to 1.000000e+00 in 39170 cells on zone 100 
 12004  7.7560e-05  2.1857e-06  2.3052e-06  1.8697e-05  2.2799e-05  2.8735e-05  3.0686e+01  3.9724e+00  4.3676e-05  4.3676e-05  2:47:53 7996

 Reversed flow on 1 face (0.1% area) of pressure-outlet 50.

 absolute pressure limited to 1.000000e+00 in 39170 cells on zone 100 
 12005  7.7549e-05  2.1853e-06  2.3048e-06  1.8694e-05  2.2799e-05  2.8731e-05  3.0686e+01  3.9724e+00  4.3675e-05  4.3675e-05  2:37:27 7995

 Reversed flow on 1 face (0.1% area) of pressure-outlet 50.

 absolute pressure limited to 1.000000e+00 in 39170 cells on zone 100 
 12006  7.7539e-05  2.1849e-06  2.3045e-06  1.8691e-05  2.2798e-05  2.8728e-05  3.0686e+01  3.9724e+00  4.3675e-05  4.3675e-05  2:28:52 7994

 Reversed flow on 1 face (0.1% area) of pressure-outlet 50.

 absolute pressure limited to 1.000000e+00 in 39170 cells on zone 100 
 12007  7.7529e-05  2.1845e-06  2.3041e-06  1.8688e-05  2.2798e-05  2.8724e-05  3.0686e+01  3.9724e+00  4.3675e-05  4.3675e-05  3:21:15 7993

 Reversed flow on 1 face (0.1% area) of pressure-outlet 50.

 absolute pressure limited to 1.000000e+00 in 39170 cells on zone 100 
 12008  7.7519e-05  2.1842e-06  2.3038e-06  1.8686e-05  2.2798e-05  2.8721e-05  3.0685e+01  3.9725e+00  4.3675e-05  4.3675e-05  3:03:19 7992

 Reversed flow on 1 face (0.1% area) of pressure-outlet 50.

 absolute pressure limited to 1.000000e+00 in 39170 cells on zone 100 
 12009  7.7508e-05  2.1838e-06  2.3035e-06  1.8683e-05  2.2797e-05  2.8718e-05  3.0685e+01  3.9725e+00  4.3675e-05  4.3675e-05  2:49:11 7991

 Reversed flow on 1 face (0.1% area) of pressure-outlet 50.

 absolute pressure limited to 1.000000e+00 in 39170 cells on zone 100 
 12010  7.7498e-05  2.1834e-06  2.3031e-06  1.8680e-05  2.2797e-05  2.8714e-05  3.0685e+01  3.9725e+00  4.3674e-05  4.3674e-05  2:38:38 7990

 Reversed flow on 1 face (0.1% area) of pressure-outlet 50.
Absolute pressure limited to 1.000000e+00 in 430898 cells during the last 11 iterations

 absolute pressure limited to 1.000000e+00 in 39170 cells on zone 100 

  iter  continuity  x-velocity  y-velocity      energy           k       omega  exit-stati   exit-mach  mass-flow-  mass-flow-     time/iter
 12011  7.7488e-05  2.1831e-06  2.3028e-06  1.8678e-05  2.2796e-05  2.8711e-05  3.0684e+01  3.9725e+00  4.3674e-05  4.3674e-05  2:30:02 7989

 Reversed flow on 1 face (0.1% area) of pressure-outlet 50.

 absolute pressure limited to 1.000000e+00 in 39170 cells on zone 100 
 12012  7.7478e-05  2.1827e-06  2.3024e-06  1.8675e-05  2.2796e-05  2.8707e-05  3.0684e+01  3.9725e+00  4.3674e-05  4.3674e-05  2:22:43 7988

 Reversed flow on 1 face (0.1% area) of pressure-outlet 50.

 absolute pressure limited to 1.000000e+00 in 39170 cells on zone 100 
 12013  7.7468e-05  2.1823e-06  2.3021e-06  1.8672e-05  2.2795e-05  2.8704e-05  3.0684e+01  3.9725e+00  4.3674e-05  4.3674e-05  2:16:10 7987

 Reversed flow on 1 face (0.1% area) of pressure-outlet 50.

 absolute pressure limited to 1.000000e+00 in 39170 cells on zone 100 
 12014  7.7457e-05  2.1819e-06  2.3017e-06  1.8669e-05  2.2795e-05  2.8700e-05  3.0684e+01  3.9725e+00  4.3674e-05  4.3674e-05  2:11:46 7986

 Reversed flow on 1 face (0.1% area) of pressure-outlet 50.

 absolute pressure limited to 1.000000e+00 in 39170 cells on zone 100 
 12015  7.7447e-05  2.1816e-06  2.3014e-06  1.8667e-05  2.2794e-05  2.8697e-05  3.0683e+01  3.9725e+00  4.3673e-05  4.3673e-05  2:08:41 7985

 Reversed flow on 1 face (0.1% area) of pressure-outlet 50.

 absolute pressure limited to 1.000000e+00 in 39170 cells on zone 100 
 12016  7.7437e-05  2.1812e-06  2.3010e-06  1.8664e-05  2.2794e-05  2.8694e-05  3.0683e+01  3.9726e+00  4.3673e-05  4.3673e-05  2:06:25 7984

 Reversed flow on 1 face (0.1% area) of pressure-outlet 50.

 absolute pressure limited to 1.000000e+00 in 39170 cells on zone 100 
 12017  7.7427e-05  2.1808e-06  2.3007e-06  1.8661e-05  2.2793e-05  2.8690e-05  3.0683e+01  3.9726e+00  4.3673e-05  4.3673e-05  2:05:26 7983

 Reversed flow on 1 face (0.1% area) of pressure-outlet 50.

 absolute pressure limited to 1.000000e+00 in 39170 cells on zone 100 
 12018  7.7417e-05  2.1805e-06  2.3004e-06  1.8659e-05  2.2793e-05  2.8687e-05  3.0682e+01  3.9726e+00  4.3673e-05  4.3673e-05  2:17:35 7982

 Reversed flow on 1 face (0.1% area) of pressure-outlet 50.

 absolute pressure limited to 1.000000e+00 in 39171 cells on zone 100 
 12019  7.7406e-05  2.1801e-06  2.3000e-06  1.8656e-05  2.2792e-05  2.8683e-05  3.0682e+01  3.9726e+00  4.3672e-05  4.3672e-05  2:14:38 7981

 Reversed flow on 1 face (0.1% area) of pressure-outlet 50.

 absolute pressure limited to 1.000000e+00 in 39171 cells on zone 100 
 12020  7.7396e-05  2.1797e-06  2.2997e-06  1.8653e-05  2.2792e-05  2.8680e-05  3.0682e+01  3.9726e+00  4.3672e-05  4.3672e-05  2:11:47 7980

 Reversed flow on 1 face (0.1% area) of pressure-outlet 50.

 absolute pressure limited to 1.000000e+00 in 39171 cells on zone 100 
 12021  7.7386e-05  2.1794e-06  2.2993e-06  1.8651e-05  2.2791e-05  2.8676e-05  3.0681e+01  3.9726e+00  4.3672e-05  4.3672e-05  2:09:27 7979

 Reversed flow on 1 face (0.1% area) of pressure-outlet 50.
Absolute pressure limited to 1.000000e+00 in 430906 cells during the last 11 iterations

 absolute pressure limited to 1.000000e+00 in 39171 cells on zone 100 

  iter  continuity  x-velocity  y-velocity      energy           k       omega  exit-stati   exit-mach  mass-flow-  mass-flow-     time/iter
 12022  7.7376e-05  2.1790e-06  2.2990e-06  1.8648e-05  2.2791e-05  2.8673e-05  3.0681e+01  3.9726e+00  4.3672e-05  4.3672e-05  2:07:47 7978

 Reversed flow on 1 face (0.1% area) of pressure-outlet 50.

 absolute pressure limited to 1.000000e+00 in 39171 cells on zone 100 
 12023  7.7366e-05  2.1786e-06  2.2987e-06  1.8645e-05  2.2790e-05  2.8670e-05  3.0681e+01  3.9726e+00  4.3672e-05  4.3672e-05  2:06:39 7977

 Reversed flow on 1 face (0.1% area) of pressure-outlet 50.

 absolute pressure limited to 1.000000e+00 in 39171 cells on zone 100 
 12024  7.7355e-05  2.1782e-06  2.2983e-06  1.8642e-05  2.2790e-05  2.8666e-05  3.0681e+01  3.9727e+00  4.3671e-05  4.3671e-05  2:05:54 7976

 Reversed flow on 1 face (0.1% area) of pressure-outlet 50.

 absolute pressure limited to 1.000000e+00 in 39171 cells on zone 100 
 12025  7.7345e-05  2.1779e-06  2.2980e-06  1.8640e-05  2.2789e-05  2.8663e-05  3.0680e+01  3.9727e+00  4.3671e-05  4.3671e-05  2:04:25 7975

 Reversed flow on 1 face (0.1% area) of pressure-outlet 50.

 absolute pressure limited to 1.000000e+00 in 39171 cells on zone 100 
 12026  7.7335e-05  2.1775e-06  2.2976e-06  1.8637e-05  2.2789e-05  2.8659e-05  3.0680e+01  3.9727e+00  4.3671e-05  4.3671e-05  2:03:00 7974

 Reversed flow on 1 face (0.1% area) of pressure-outlet 50.

 absolute pressure limited to 1.000000e+00 in 39171 cells on zone 100 
 12027  7.7325e-05  2.1771e-06  2.2973e-06  1.8634e-05  2.2789e-05  2.8656e-05  3.0680e+01  3.9727e+00  4.3671e-05  4.3671e-05  2:03:04 7973

 Reversed flow on 1 face (0.1% area) of pressure-outlet 50.

 absolute pressure limited to 1.000000e+00 in 39171 cells on zone 100 
 12028  7.7315e-05  2.1768e-06  2.2969e-06  1.8632e-05  2.2788e-05  2.8652e-05  3.0679e+01  3.9727e+00  4.3671e-05  4.3671e-05  2:05:42 7972

 Reversed flow on 1 face (0.1% area) of pressure-outlet 50.

 absolute pressure limited to 1.000000e+00 in 39171 cells on zone 100 
 12029  7.7305e-05  2.1764e-06  2.2966e-06  1.8629e-05  2.2788e-05  2.8649e-05  3.0679e+01  3.9727e+00  4.3670e-05  4.3670e-05  2:18:31 7971

 Reversed flow on 1 face (0.1% area) of pressure-outlet 50.

 absolute pressure limited to 1.000000e+00 in 39171 cells on zone 100 
 12030  7.7294e-05  2.1760e-06  2.2963e-06  1.8626e-05  2.2787e-05  2.8646e-05  3.0679e+01  3.9727e+00  4.3670e-05  4.3670e-05  2:18:09 7970

 Reversed flow on 1 face (0.1% area) of pressure-outlet 50.

 absolute pressure limited to 1.000000e+00 in 39171 cells on zone 100 
 12031  7.7284e-05  2.1756e-06  2.2959e-06  1.8624e-05  2.2787e-05  2.8642e-05  3.0679e+01  3.9728e+00  4.3670e-05  4.3670e-05  2:15:51 7969

 Reversed flow on 1 face (0.1% area) of pressure-outlet 50.

 absolute pressure limited to 1.000000e+00 in 39171 cells on zone 100 
 12032  7.7274e-05  2.1752e-06  2.2956e-06  1.8621e-05  2.2786e-05  2.8639e-05  3.0678e+01  3.9728e+00  4.3670e-05  4.3670e-05  2:13:35 7968

 Reversed flow on 1 face (0.1% area) of pressure-outlet 50.
Absolute pressure limited to 1.000000e+00 in 430906 cells during the last 11 iterations

 absolute pressure limited to 1.000000e+00 in 39171 cells on zone 100 

  iter  continuity  x-velocity  y-velocity      energy           k       omega  exit-stati   exit-mach  mass-flow-  mass-flow-     time/iter
 12033  7.7264e-05  2.1749e-06  2.2952e-06  1.8618e-05  2.2786e-05  2.8635e-05  3.0678e+01  3.9728e+00  4.3670e-05  4.3670e-05  2:12:36 7967

 Reversed flow on 1 face (0.1% area) of pressure-outlet 50.

 absolute pressure limited to 1.000000e+00 in 39171 cells on zone 100 
 12034  7.7254e-05  2.1745e-06  2.2949e-06  1.8616e-05  2.2785e-05  2.8632e-05  3.0678e+01  3.9728e+00  4.3669e-05  4.3669e-05  2:10:26 7966

 Reversed flow on 1 face (0.1% area) of pressure-outlet 50.

 absolute pressure limited to 1.000000e+00 in 39171 cells on zone 100 
 12035  7.7244e-05  2.1741e-06  2.2945e-06  1.8613e-05  2.2785e-05  2.8628e-05  3.0677e+01  3.9728e+00  4.3669e-05  4.3669e-05  2:09:44 7965

 Reversed flow on 1 face (0.1% area) of pressure-outlet 50.

 absolute pressure limited to 1.000000e+00 in 39171 cells on zone 100 
 12036  7.7233e-05  2.1737e-06  2.2942e-06  1.8610e-05  2.2784e-05  2.8625e-05  3.0677e+01  3.9728e+00  4.3669e-05  4.3669e-05  2:13:19 7964

 Reversed flow on 1 face (0.1% area) of pressure-outlet 50.

 absolute pressure limited to 1.000000e+00 in 39171 cells on zone 100 
 12037  7.7223e-05  2.1733e-06  2.2938e-06  1.8608e-05  2.2784e-05  2.8622e-05  3.0677e+01  3.9728e+00  4.3669e-05  4.3669e-05  2:13:42 7963

 Reversed flow on 1 face (0.1% area) of pressure-outlet 50.

 absolute pressure limited to 1.000000e+00 in 39171 cells on zone 100 
 12038  7.7213e-05  2.1730e-06  2.2935e-06  1.8605e-05  2.2783e-05  2.8618e-05  3.0677e+01  3.9728e+00  4.3668e-05  4.3668e-05  2:14:04 7962

 Reversed flow on 1 face (0.1% area) of pressure-outlet 50.

 absolute pressure limited to 1.000000e+00 in 39171 cells on zone 100 
 12039  7.7203e-05  2.1726e-06  2.2931e-06  1.8602e-05  2.2783e-05  2.8615e-05  3.0676e+01  3.9729e+00  4.3668e-05  4.3668e-05  2:13:56 7961

 Reversed flow on 1 face (0.1% area) of pressure-outlet 50.

 absolute pressure limited to 1.000000e+00 in 39171 cells on zone 100 
 12040  7.7193e-05  2.1722e-06  2.2928e-06  1.8600e-05  2.2782e-05  2.8611e-05  3.0676e+01  3.9729e+00  4.3668e-05  4.3668e-05  2:28:17 7960

 Reversed flow on 1 face (0.1% area) of pressure-outlet 50.

 absolute pressure limited to 1.000000e+00 in 39171 cells on zone 100 
 12041  7.7183e-05  2.1718e-06  2.2925e-06  1.8597e-05  2.2782e-05  2.8608e-05  3.0676e+01  3.9729e+00  4.3668e-05  4.3668e-05  2:26:04 7959

 Reversed flow on 1 face (0.1% area) of pressure-outlet 50.

 absolute pressure limited to 1.000000e+00 in 39169 cells on zone 100 
 12042  7.7172e-05  2.1715e-06  2.2921e-06  1.8594e-05  2.2781e-05  2.8605e-05  3.0675e+01  3.9729e+00  4.3668e-05  4.3668e-05  2:30:25 7958

 Reversed flow on 1 face (0.1% area) of pressure-outlet 50.

 absolute pressure limited to 1.000000e+00 in 39168 cells on zone 100 
 12043  7.7162e-05  2.1711e-06  2.2918e-06  1.8592e-05  2.2781e-05  2.8601e-05  3.0675e+01  3.9729e+00  4.3667e-05  4.3667e-05  2:30:40 7957

 Reversed flow on 1 face (0.1% area) of pressure-outlet 50.
Absolute pressure limited to 1.000000e+00 in 430900 cells during the last 11 iterations

 absolute pressure limited to 1.000000e+00 in 39168 cells on zone 100 

  iter  continuity  x-velocity  y-velocity      energy           k       omega  exit-stati   exit-mach  mass-flow-  mass-flow-     time/iter
 12044  7.7152e-05  2.1707e-06  2.2914e-06  1.8589e-05  2.2780e-05  2.8598e-05  3.0675e+01  3.9729e+00  4.3667e-05  4.3667e-05  2:26:45 7956

 Reversed flow on 1 face (0.1% area) of pressure-outlet 50.

 absolute pressure limited to 1.000000e+00 in 39168 cells on zone 100 
 12045  7.7142e-05  2.1704e-06  2.2911e-06  1.8586e-05  2.2780e-05  2.8594e-05  3.0674e+01  3.9729e+00  4.3667e-05  4.3667e-05  2:24:31 7955

 Reversed flow on 1 face (0.1% area) of pressure-outlet 50.

 absolute pressure limited to 1.000000e+00 in 39168 cells on zone 100 
 12046  7.7132e-05  2.1700e-06  2.2908e-06  1.8584e-05  2.2779e-05  2.8591e-05  3.0674e+01  3.9729e+00  4.3667e-05  4.3667e-05  2:22:26 7954

 Reversed flow on 1 face (0.1% area) of pressure-outlet 50.

 absolute pressure limited to 1.000000e+00 in 39170 cells on zone 100 
 12047  7.7122e-05  2.1697e-06  2.2904e-06  1.8581e-05  2.2778e-05  2.8588e-05  3.0674e+01  3.9730e+00  4.3667e-05  4.3667e-05  2:24:19 7953

 Reversed flow on 1 face (0.1% area) of pressure-outlet 50.

 absolute pressure limited to 1.000000e+00 in 39171 cells on zone 100 
 12048  7.7112e-05  2.1693e-06  2.2901e-06  1.8578e-05  2.2778e-05  2.8584e-05  3.0674e+01  3.9730e+00  4.3666e-05  4.3666e-05  2:26:22 7952

 Reversed flow on 1 face (0.1% area) of pressure-outlet 50.

 absolute pressure limited to 1.000000e+00 in 39172 cells on zone 100 
 12049  7.7102e-05  2.1689e-06  2.2897e-06  1.8576e-05  2.2777e-05  2.8581e-05  3.0673e+01  3.9730e+00  4.3666e-05  4.3666e-05  2:24:29 7951

 Reversed flow on 1 face (0.1% area) of pressure-outlet 50.

 absolute pressure limited to 1.000000e+00 in 39172 cells on zone 100 
 12050  7.7091e-05  2.1686e-06  2.2894e-06  1.8573e-05  2.2777e-05  2.8577e-05  3.0673e+01  3.9730e+00  4.3666e-05  4.3666e-05  2:21:44 7950

 Reversed flow on 1 face (0.1% area) of pressure-outlet 50.

 absolute pressure limited to 1.000000e+00 in 39173 cells on zone 100 
 12051  7.7081e-05  2.1682e-06  2.2891e-06  1.8570e-05  2.2776e-05  2.8574e-05  3.0673e+01  3.9730e+00  4.3666e-05  4.3666e-05  2:34:45 7949

 Reversed flow on 1 face (0.1% area) of pressure-outlet 50.

 absolute pressure limited to 1.000000e+00 in 39173 cells on zone 100 
 12052  7.7071e-05  2.1678e-06  2.2887e-06  1.8568e-05  2.2776e-05  2.8570e-05  3.0672e+01  3.9730e+00  4.3666e-05  4.3666e-05  2:30:40 7948

 Reversed flow on 1 face (0.1% area) of pressure-outlet 50.

 absolute pressure limited to 1.000000e+00 in 39173 cells on zone 100 
 12053  7.7061e-05  2.1675e-06  2.2884e-06  1.8565e-05  2.2775e-05  2.8567e-05  3.0672e+01  3.9730e+00  4.3665e-05  4.3665e-05  2:27:26 7947

 Reversed flow on 1 face (0.1% area) of pressure-outlet 50.

 absolute pressure limited to 1.000000e+00 in 39173 cells on zone 100 
 12054  7.7051e-05  2.1671e-06  2.2880e-06  1.8562e-05  2.2775e-05  2.8564e-05  3.0672e+01  3.9730e+00  4.3665e-05  4.3665e-05  2:25:06 7946

 Reversed flow on 1 face (0.1% area) of pressure-outlet 50.
Absolute pressure limited to 1.000000e+00 in 430913 cells during the last 11 iterations

 absolute pressure limited to 1.000000e+00 in 39173 cells on zone 100 

  iter  continuity  x-velocity  y-velocity      energy           k       omega  exit-stati   exit-mach  mass-flow-  mass-flow-     time/iter
 12055  7.7041e-05  2.1667e-06  2.2877e-06  1.8560e-05  2.2774e-05  2.8560e-05  3.0672e+01  3.9731e+00  4.3665e-05  4.3665e-05  2:22:24 7945

 Reversed flow on 1 face (0.1% area) of pressure-outlet 50.

 absolute pressure limited to 1.000000e+00 in 39173 cells on zone 100 
 12056  7.7031e-05  2.1663e-06  2.2874e-06  1.8557e-05  2.2774e-05  2.8557e-05  3.0671e+01  3.9731e+00  4.3665e-05  4.3665e-05  2:20:18 7944

 Reversed flow on 1 face (0.1% area) of pressure-outlet 50.

 absolute pressure limited to 1.000000e+00 in 39173 cells on zone 100 
 12057  7.7021e-05  2.1660e-06  2.2870e-06  1.8554e-05  2.2773e-05  2.8553e-05  3.0671e+01  3.9731e+00  4.3665e-05  4.3665e-05  2:20:04 7943

 Reversed flow on 1 face (0.1% area) of pressure-outlet 50.

 absolute pressure limited to 1.000000e+00 in 39173 cells on zone 100 
 12058  7.7011e-05  2.1656e-06  2.2867e-06  1.8552e-05  2.2773e-05  2.8550e-05  3.0671e+01  3.9731e+00  4.3664e-05  4.3664e-05  2:19:10 7942

 Reversed flow on 1 face (0.1% area) of pressure-outlet 50.

 absolute pressure limited to 1.000000e+00 in 39173 cells on zone 100 
 12059  7.7000e-05  2.1653e-06  2.2863e-06  1.8549e-05  2.2772e-05  2.8547e-05  3.0670e+01  3.9731e+00  4.3664e-05  4.3664e-05  2:20:44 7941

 Reversed flow on 1 face (0.1% area) of pressure-outlet 50.

 absolute pressure limited to 1.000000e+00 in 39173 cells on zone 100 
 12060  7.6990e-05  2.1649e-06  2.2860e-06  1.8547e-05  2.2772e-05  2.8543e-05  3.0670e+01  3.9731e+00  4.3664e-05  4.3664e-05  2:20:14 7940

 Reversed flow on 1 face (0.1% area) of pressure-outlet 50.

 absolute pressure limited to 1.000000e+00 in 39173 cells on zone 100 
 12061  7.6980e-05  2.1645e-06  2.2857e-06  1.8544e-05  2.2771e-05  2.8540e-05  3.0670e+01  3.9731e+00  4.3664e-05  4.3664e-05  2:19:22 7939

 Reversed flow on 1 face (0.1% area) of pressure-outlet 50.

 absolute pressure limited to 1.000000e+00 in 39173 cells on zone 100 
 12062  7.6970e-05  2.1642e-06  2.2853e-06  1.8541e-05  2.2771e-05  2.8536e-05  3.0670e+01  3.9731e+00  4.3663e-05  4.3663e-05  2:19:05 7938

 Reversed flow on 1 face (0.1% area) of pressure-outlet 50.

 absolute pressure limited to 1.000000e+00 in 39173 cells on zone 100 
 12063  7.6960e-05  2.1638e-06  2.2850e-06  1.8539e-05  2.2770e-05  2.8533e-05  3.0669e+01  3.9732e+00  4.3663e-05  4.3663e-05  2:36:49 7937

 Reversed flow on 1 face (0.1% area) of pressure-outlet 50.

 absolute pressure limited to 1.000000e+00 in 39173 cells on zone 100 
 12064  7.6950e-05  2.1634e-06  2.2846e-06  1.8536e-05  2.2769e-05  2.8530e-05  3.0669e+01  3.9732e+00  4.3663e-05  4.3663e-05  2:34:39 7936

 Reversed flow on 1 face (0.1% area) of pressure-outlet 50.

 absolute pressure limited to 1.000000e+00 in 39173 cells on zone 100 
 12065  7.6940e-05  2.1631e-06  2.2843e-06  1.8533e-05  2.2769e-05  2.8526e-05  3.0669e+01  3.9732e+00  4.3663e-05  4.3663e-05  2:38:08 7935

 Reversed flow on 1 face (0.1% area) of pressure-outlet 50.
Absolute pressure limited to 1.000000e+00 in 430914 cells during the last 11 iterations

 absolute pressure limited to 1.000000e+00 in 39173 cells on zone 100 

  iter  continuity  x-velocity  y-velocity      energy           k       omega  exit-stati   exit-mach  mass-flow-  mass-flow-     time/iter
 12066  7.6930e-05  2.1627e-06  2.2840e-06  1.8531e-05  2.2768e-05  2.8523e-05  3.0668e+01  3.9732e+00  4.3663e-05  4.3663e-05  2:35:06 7934

 Reversed flow on 1 face (0.1% area) of pressure-outlet 50.

 absolute pressure limited to 1.000000e+00 in 39172 cells on zone 100 
 12067  7.6920e-05  2.1623e-06  2.2836e-06  1.8528e-05  2.2768e-05  2.8519e-05  3.0668e+01  3.9732e+00  4.3662e-05  4.3662e-05  2:34:36 7933

 Reversed flow on 1 face (0.1% area) of pressure-outlet 50.

 absolute pressure limited to 1.000000e+00 in 39172 cells on zone 100 
 12068  7.6910e-05  2.1620e-06  2.2833e-06  1.8525e-05  2.2767e-05  2.8516e-05  3.0668e+01  3.9732e+00  4.3662e-05  4.3662e-05  2:34:11 7932

 Reversed flow on 1 face (0.1% area) of pressure-outlet 50.

 absolute pressure limited to 1.000000e+00 in 39172 cells on zone 100 
 12069  7.6900e-05  2.1616e-06  2.2829e-06  1.8523e-05  2.2767e-05  2.8513e-05  3.0668e+01  3.9732e+00  4.3662e-05  4.3662e-05  2:34:28 7931

 Reversed flow on 1 face (0.1% area) of pressure-outlet 50.

 absolute pressure limited to 1.000000e+00 in 39172 cells on zone 100 
 12070  7.6889e-05  2.1613e-06  2.2826e-06  1.8520e-05  2.2766e-05  2.8509e-05  3.0667e+01  3.9732e+00  4.3662e-05  4.3662e-05  2:34:28 7930

 Reversed flow on 1 face (0.1% area) of pressure-outlet 50.

 absolute pressure limited to 1.000000e+00 in 39172 cells on zone 100 
 12071  7.6879e-05  2.1609e-06  2.2823e-06  1.8518e-05  2.2766e-05  2.8506e-05  3.0667e+01  3.9733e+00  4.3662e-05  4.3662e-05  2:33:04 7929

 Reversed flow on 1 face (0.1% area) of pressure-outlet 50.

 absolute pressure limited to 1.000000e+00 in 39172 cells on zone 100 
 12072  7.6869e-05  2.1605e-06  2.2819e-06  1.8515e-05  2.2765e-05  2.8502e-05  3.0667e+01  3.9733e+00  4.3661e-05  4.3661e-05  2:32:05 7928

 Reversed flow on 1 face (0.1% area) of pressure-outlet 50.

 absolute pressure limited to 1.000000e+00 in 39172 cells on zone 100 
 12073  7.6859e-05  2.1602e-06  2.2816e-06  1.8512e-05  2.2764e-05  2.8499e-05  3.0666e+01  3.9733e+00  4.3661e-05  4.3661e-05  2:33:24 7927

 Reversed flow on 1 face (0.1% area) of pressure-outlet 50.

 absolute pressure limited to 1.000000e+00 in 39172 cells on zone 100 
 12074  7.6849e-05  2.1598e-06  2.2813e-06  1.8510e-05  2.2764e-05  2.8496e-05  3.0666e+01  3.9733e+00  4.3661e-05  4.3661e-05  2:48:59 7926

 Reversed flow on 1 face (0.1% area) of pressure-outlet 50.

 absolute pressure limited to 1.000000e+00 in 39172 cells on zone 100 
 12075  7.6839e-05  2.1594e-06  2.2809e-06  1.8507e-05  2.2763e-05  2.8492e-05  3.0666e+01  3.9733e+00  4.3661e-05  4.3661e-05  2:44:51 7925

 Reversed flow on 1 face (0.1% area) of pressure-outlet 50.

 absolute pressure limited to 1.000000e+00 in 39172 cells on zone 100 
 12076  7.6829e-05  2.1591e-06  2.2806e-06  1.8504e-05  2.2763e-05  2.8489e-05  3.0666e+01  3.9733e+00  4.3661e-05  4.3661e-05  2:42:50 7924

 Reversed flow on 1 face (0.1% area) of pressure-outlet 50.
Absolute pressure limited to 1.000000e+00 in 430905 cells during the last 11 iterations

 absolute pressure limited to 1.000000e+00 in 39172 cells on zone 100 

  iter  continuity  x-velocity  y-velocity      energy           k       omega  exit-stati   exit-mach  mass-flow-  mass-flow-     time/iter
 12077  7.6819e-05  2.1587e-06  2.2803e-06  1.8502e-05  2.2762e-05  2.8486e-05  3.0665e+01  3.9733e+00  4.3660e-05  4.3660e-05  2:40:44 7923

 Reversed flow on 1 face (0.1% area) of pressure-outlet 50.

 absolute pressure limited to 1.000000e+00 in 39172 cells on zone 100 
 12078  7.6809e-05  2.1584e-06  2.2799e-06  1.8499e-05  2.2762e-05  2.8482e-05  3.0665e+01  3.9733e+00  4.3660e-05  4.3660e-05  2:38:03 7922

 Reversed flow on 1 face (0.1% area) of pressure-outlet 50.

 absolute pressure limited to 1.000000e+00 in 39172 cells on zone 100 
 12079  7.6799e-05  2.1580e-06  2.2796e-06  1.8497e-05  2.2761e-05  2.8479e-05  3.0665e+01  3.9734e+00  4.3660e-05  4.3660e-05  2:35:02 7921

 Reversed flow on 1 face (0.1% area) of pressure-outlet 50.

 absolute pressure limited to 1.000000e+00 in 39172 cells on zone 100 
 12080  7.6789e-05  2.1576e-06  2.2793e-06  1.8494e-05  2.2761e-05  2.8475e-05  3.0664e+01  3.9734e+00  4.3660e-05  4.3660e-05  2:34:25 7920

 Reversed flow on 1 face (0.1% area) of pressure-outlet 50.

 absolute pressure limited to 1.000000e+00 in 39172 cells on zone 100 
 12081  7.6779e-05  2.1573e-06  2.2789e-06  1.8491e-05  2.2760e-05  2.8472e-05  3.0664e+01  3.9734e+00  4.3660e-05  4.3660e-05  2:32:41 7919

 Reversed flow on 1 face (0.1% area) of pressure-outlet 50.

 absolute pressure limited to 1.000000e+00 in 39172 cells on zone 100 
 12082  7.6769e-05  2.1569e-06  2.2786e-06  1.8489e-05  2.2759e-05  2.8469e-05  3.0664e+01  3.9734e+00  4.3659e-05  4.3659e-05  2:32:01 7918

 Reversed flow on 1 face (0.1% area) of pressure-outlet 50.

 absolute pressure limited to 1.000000e+00 in 39172 cells on zone 100 
 12083  7.6759e-05  2.1566e-06  2.2782e-06  1.8486e-05  2.2759e-05  2.8465e-05  3.0663e+01  3.9734e+00  4.3659e-05  4.3659e-05  2:31:49 7917

 Reversed flow on 1 face (0.1% area) of pressure-outlet 50.

 absolute pressure limited to 1.000000e+00 in 39172 cells on zone 100 
 12084  7.6749e-05  2.1562e-06  2.2779e-06  1.8484e-05  2.2758e-05  2.8462e-05  3.0663e+01  3.9734e+00  4.3659e-05  4.3659e-05  2:30:44 7916

 Reversed flow on 1 face (0.1% area) of pressure-outlet 50.

 absolute pressure limited to 1.000000e+00 in 39172 cells on zone 100 
 12085  7.6739e-05  2.1559e-06  2.2776e-06  1.8481e-05  2.2758e-05  2.8458e-05  3.0663e+01  3.9734e+00  4.3659e-05  4.3659e-05  2:46:43 7915

 Reversed flow on 1 face (0.1% area) of pressure-outlet 50.

 absolute pressure limited to 1.000000e+00 in 39172 cells on zone 100 
 12086  7.6728e-05  2.1555e-06  2.2772e-06  1.8478e-05  2.2757e-05  2.8455e-05  3.0663e+01  3.9734e+00  4.3658e-05  4.3658e-05  2:41:23 7914

 Reversed flow on 1 face (0.1% area) of pressure-outlet 50.

 absolute pressure limited to 1.000000e+00 in 39172 cells on zone 100 
 12087  7.6718e-05  2.1551e-06  2.2769e-06  1.8476e-05  2.2757e-05  2.8452e-05  3.0662e+01  3.9735e+00  4.3658e-05  4.3658e-05  2:39:12 7913

 Reversed flow on 1 face (0.1% area) of pressure-outlet 50.
Absolute pressure limited to 1.000000e+00 in 430905 cells during the last 11 iterations

 absolute pressure limited to 1.000000e+00 in 39172 cells on zone 100 

  iter  continuity  x-velocity  y-velocity      energy           k       omega  exit-stati   exit-mach  mass-flow-  mass-flow-     time/iter
 12088  7.6708e-05  2.1548e-06  2.2766e-06  1.8473e-05  2.2756e-05  2.8448e-05  3.0662e+01  3.9735e+00  4.3658e-05  4.3658e-05  2:36:27 7912

 Reversed flow on 1 face (0.1% area) of pressure-outlet 50.

 absolute pressure limited to 1.000000e+00 in 39172 cells on zone 100 
 12089  7.6698e-05  2.1544e-06  2.2763e-06  1.8471e-05  2.2755e-05  2.8445e-05  3.0662e+01  3.9735e+00  4.3658e-05  4.3658e-05  2:35:21 7911

 Reversed flow on 1 face (0.1% area) of pressure-outlet 50.

 absolute pressure limited to 1.000000e+00 in 39172 cells on zone 100 
 12090  7.6688e-05  2.1541e-06  2.2759e-06  1.8468e-05  2.2755e-05  2.8442e-05  3.0661e+01  3.9735e+00  4.3658e-05  4.3658e-05  2:34:23 7910

 Reversed flow on 1 face (0.1% area) of pressure-outlet 50.

 absolute pressure limited to 1.000000e+00 in 39172 cells on zone 100 
 12091  7.6678e-05  2.1537e-06  2.2756e-06  1.8465e-05  2.2754e-05  2.8438e-05  3.0661e+01  3.9735e+00  4.3657e-05  4.3657e-05  2:32:44 7909

 Reversed flow on 1 face (0.1% area) of pressure-outlet 50.

 absolute pressure limited to 1.000000e+00 in 39172 cells on zone 100 
 12092  7.6668e-05  2.1534e-06  2.2753e-06  1.8463e-05  2.2754e-05  2.8435e-05  3.0661e+01  3.9735e+00  4.3657e-05  4.3657e-05  2:37:32 7908

 Reversed flow on 1 face (0.1% area) of pressure-outlet 50.

 absolute pressure limited to 1.000000e+00 in 39172 cells on zone 100 
 12093  7.6658e-05  2.1530e-06  2.2749e-06  1.8460e-05  2.2753e-05  2.8431e-05  3.0661e+01  3.9735e+00  4.3657e-05  4.3657e-05  2:35:14 7907

 Reversed flow on 1 face (0.1% area) of pressure-outlet 50.

 absolute pressure limited to 1.000000e+00 in 39172 cells on zone 100 
 12094  7.6648e-05  2.1526e-06  2.2746e-06  1.8458e-05  2.2753e-05  2.8428e-05  3.0660e+01  3.9735e+00  4.3657e-05  4.3657e-05  2:33:26 7906

 Reversed flow on 1 face (0.1% area) of pressure-outlet 50.

 absolute pressure limited to 1.000000e+00 in 39172 cells on zone 100 
 12095  7.6638e-05  2.1523e-06  2.2743e-06  1.8455e-05  2.2752e-05  2.8425e-05  3.0660e+01  3.9736e+00  4.3657e-05  4.3657e-05  2:31:34 7905

 Reversed flow on 1 face (0.1% area) of pressure-outlet 50.

 absolute pressure limited to 1.000000e+00 in 39172 cells on zone 100 
 12096  7.6628e-05  2.1520e-06  2.2739e-06  1.8452e-05  2.2751e-05  2.8421e-05  3.0660e+01  3.9736e+00  4.3656e-05  4.3656e-05  2:46:08 7904

 Reversed flow on 1 face (0.1% area) of pressure-outlet 50.

 absolute pressure limited to 1.000000e+00 in 39172 cells on zone 100 
 12097  7.6618e-05  2.1516e-06  2.2736e-06  1.8450e-05  2.2751e-05  2.8418e-05  3.0659e+01  3.9736e+00  4.3656e-05  4.3656e-05  2:41:07 7903

 Reversed flow on 1 face (0.1% area) of pressure-outlet 50.

 absolute pressure limited to 1.000000e+00 in 39172 cells on zone 100 
 12098  7.6608e-05  2.1513e-06  2.2732e-06  1.8447e-05  2.2750e-05  2.8415e-05  3.0659e+01  3.9736e+00  4.3656e-05  4.3656e-05  2:38:26 7902

 Reversed flow on 1 face (0.1% area) of pressure-outlet 50.
Absolute pressure limited to 1.000000e+00 in 430904 cells during the last 11 iterations

 absolute pressure limited to 1.000000e+00 in 39172 cells on zone 100 

  iter  continuity  x-velocity  y-velocity      energy           k       omega  exit-stati   exit-mach  mass-flow-  mass-flow-     time/iter
 12099  7.6598e-05  2.1509e-06  2.2729e-06  1.8445e-05  2.2750e-05  2.8411e-05  3.0659e+01  3.9736e+00  4.3656e-05  4.3656e-05  2:35:47 7901

 Reversed flow on 1 face (0.1% area) of pressure-outlet 50.

 absolute pressure limited to 1.000000e+00 in 39172 cells on zone 100 
 12100  7.6588e-05  2.1505e-06  2.2726e-06  1.8442e-05  2.2749e-05  2.8408e-05  3.0659e+01  3.9736e+00  4.3656e-05  4.3656e-05  2:33:50 7900

 Reversed flow on 1 face (0.1% area) of pressure-outlet 50.

 absolute pressure limited to 1.000000e+00 in 39172 cells on zone 100 
 12101  7.6578e-05  2.1502e-06  2.2723e-06  1.8439e-05  2.2749e-05  2.8404e-05  3.0658e+01  3.9736e+00  4.3655e-05  4.3655e-05  2:32:38 7899

 Reversed flow on 1 face (0.1% area) of pressure-outlet 50.

 absolute pressure limited to 1.000000e+00 in 39172 cells on zone 100 
 12102  7.6568e-05  2.1499e-06  2.2719e-06  1.8437e-05  2.2748e-05  2.8401e-05  3.0658e+01  3.9736e+00  4.3655e-05  4.3655e-05  2:32:18 7898

 Reversed flow on 1 face (0.1% area) of pressure-outlet 50.

 absolute pressure limited to 1.000000e+00 in 39171 cells on zone 100 
 12103  7.6558e-05  2.1495e-06  2.2716e-06  1.8434e-05  2.2747e-05  2.8398e-05  3.0658e+01  3.9737e+00  4.3655e-05  4.3655e-05  2:31:56 7897

 Reversed flow on 1 face (0.1% area) of pressure-outlet 50.

 absolute pressure limited to 1.000000e+00 in 39171 cells on zone 100 
 12104  7.6548e-05  2.1491e-06  2.2713e-06  1.8432e-05  2.2747e-05  2.8394e-05  3.0657e+01  3.9737e+00  4.3655e-05  4.3655e-05  2:30:59 7896

 Reversed flow on 1 face (0.1% area) of pressure-outlet 50.

 absolute pressure limited to 1.000000e+00 in 39171 cells on zone 100 
 12105  7.6538e-05  2.1488e-06  2.2710e-06  1.8429e-05  2.2746e-05  2.8391e-05  3.0657e+01  3.9737e+00  4.3655e-05  4.3655e-05  2:30:26 7895

 Reversed flow on 1 face (0.1% area) of pressure-outlet 50.

 absolute pressure limited to 1.000000e+00 in 39171 cells on zone 100 
 12106  7.6528e-05  2.1484e-06  2.2706e-06  1.8426e-05  2.2746e-05  2.8388e-05  3.0657e+01  3.9737e+00  4.3654e-05  4.3654e-05  2:29:16 7894

 Reversed flow on 1 face (0.1% area) of pressure-outlet 50.

 absolute pressure limited to 1.000000e+00 in 39172 cells on zone 100 
 12107  7.6518e-05  2.1481e-06  2.2703e-06  1.8424e-05  2.2745e-05  2.8384e-05  3.0657e+01  3.9737e+00  4.3654e-05  4.3654e-05  2:45:26 7893

 Reversed flow on 1 face (0.1% area) of pressure-outlet 50.

 absolute pressure limited to 1.000000e+00 in 39172 cells on zone 100 
 12108  7.6508e-05  2.1477e-06  2.2700e-06  1.8421e-05  2.2744e-05  2.8381e-05  3.0656e+01  3.9737e+00  4.3654e-05  4.3654e-05  2:43:29 7892

 Reversed flow on 1 face (0.1% area) of pressure-outlet 50.

 absolute pressure limited to 1.000000e+00 in 39171 cells on zone 100 
 12109  7.6498e-05  2.1474e-06  2.2696e-06  1.8419e-05  2.2744e-05  2.8378e-05  3.0656e+01  3.9737e+00  4.3654e-05  4.3654e-05  2:40:24 7891

 Reversed flow on 1 face (0.1% area) of pressure-outlet 50.
Absolute pressure limited to 1.000000e+00 in 430905 cells during the last 11 iterations

 absolute pressure limited to 1.000000e+00 in 39171 cells on zone 100 

  iter  continuity  x-velocity  y-velocity      energy           k       omega  exit-stati   exit-mach  mass-flow-  mass-flow-     time/iter
 12110  7.6488e-05  2.1470e-06  2.2693e-06  1.8416e-05  2.2743e-05  2.8374e-05  3.0656e+01  3.9737e+00  4.3654e-05  4.3654e-05  2:37:30 7890

 Reversed flow on 1 face (0.1% area) of pressure-outlet 50.

 absolute pressure limited to 1.000000e+00 in 39171 cells on zone 100 
 12111  7.6478e-05  2.1467e-06  2.2690e-06  1.8414e-05  2.2743e-05  2.8371e-05  3.0655e+01  3.9738e+00  4.3653e-05  4.3653e-05  2:34:36 7889

 Reversed flow on 1 face (0.1% area) of pressure-outlet 50.

 absolute pressure limited to 1.000000e+00 in 39171 cells on zone 100 
 12112  7.6468e-05  2.1463e-06  2.2686e-06  1.8411e-05  2.2742e-05  2.8367e-05  3.0655e+01  3.9738e+00  4.3653e-05  4.3653e-05  2:32:24 7888

 Reversed flow on 1 face (0.1% area) of pressure-outlet 50.

 absolute pressure limited to 1.000000e+00 in 39171 cells on zone 100 
 12113  7.6458e-05  2.1460e-06  2.2683e-06  1.8408e-05  2.2742e-05  2.8364e-05  3.0655e+01  3.9738e+00  4.3653e-05  4.3653e-05  2:32:13 7887

 Reversed flow on 1 face (0.1% area) of pressure-outlet 50.

 absolute pressure limited to 1.000000e+00 in 39171 cells on zone 100 
 12114  7.6448e-05  2.1456e-06  2.2680e-06  1.8406e-05  2.2741e-05  2.8361e-05  3.0655e+01  3.9738e+00  4.3653e-05  4.3653e-05  2:33:26 7886

 Reversed flow on 1 face (0.1% area) of pressure-outlet 50.

 absolute pressure limited to 1.000000e+00 in 39171 cells on zone 100 
 12115  7.6438e-05  2.1453e-06  2.2676e-06  1.8403e-05  2.2740e-05  2.8357e-05  3.0654e+01  3.9738e+00  4.3653e-05  4.3653e-05  2:33:53 7885

 Reversed flow on 1 face (0.1% area) of pressure-outlet 50.

 absolute pressure limited to 1.000000e+00 in 39171 cells on zone 100 
 12116  7.6428e-05  2.1449e-06  2.2673e-06  1.8401e-05  2.2740e-05  2.8354e-05  3.0654e+01  3.9738e+00  4.3652e-05  4.3652e-05  2:34:39 7884

 Reversed flow on 1 face (0.1% area) of pressure-outlet 50.

 absolute pressure limited to 1.000000e+00 in 39171 cells on zone 100 
 12117  7.6418e-05  2.1446e-06  2.2670e-06  1.8398e-05  2.2739e-05  2.8351e-05  3.0654e+01  3.9738e+00  4.3652e-05  4.3652e-05  2:33:48 7883

 Reversed flow on 1 face (0.1% area) of pressure-outlet 50.

 absolute pressure limited to 1.000000e+00 in 39171 cells on zone 100 
 12118  7.6408e-05  2.1442e-06  2.2667e-06  1.8396e-05  2.2739e-05  2.8347e-05  3.0653e+01  3.9738e+00  4.3652e-05  4.3652e-05  2:50:33 7882

 Reversed flow on 1 face (0.1% area) of pressure-outlet 50.

 absolute pressure limited to 1.000000e+00 in 39171 cells on zone 100 
 12119  7.6398e-05  2.1439e-06  2.2663e-06  1.8393e-05  2.2738e-05  2.8344e-05  3.0653e+01  3.9739e+00  4.3652e-05  4.3652e-05  2:46:41 7881

 Reversed flow on 1 face (0.1% area) of pressure-outlet 50.

 absolute pressure limited to 1.000000e+00 in 39171 cells on zone 100 
 12120  7.6388e-05  2.1435e-06  2.2660e-06  1.8390e-05  2.2737e-05  2.8341e-05  3.0653e+01  3.9739e+00  4.3651e-05  4.3651e-05  2:42:24 7880

 Reversed flow on 1 face (0.1% area) of pressure-outlet 50.
Absolute pressure limited to 1.000000e+00 in 430892 cells during the last 11 iterations

 absolute pressure limited to 1.000000e+00 in 39171 cells on zone 100 

  iter  continuity  x-velocity  y-velocity      energy           k       omega  exit-stati   exit-mach  mass-flow-  mass-flow-     time/iter
 12121  7.6378e-05  2.1432e-06  2.2656e-06  1.8388e-05  2.2737e-05  2.8337e-05  3.0653e+01  3.9739e+00  4.3651e-05  4.3651e-05  2:38:41 7879

 Reversed flow on 1 face (0.1% area) of pressure-outlet 50.

 absolute pressure limited to 1.000000e+00 in 39171 cells on zone 100 
 12122  7.6368e-05  2.1429e-06  2.2653e-06  1.8385e-05  2.2736e-05  2.8334e-05  3.0652e+01  3.9739e+00  4.3651e-05  4.3651e-05  2:37:26 7878

 Reversed flow on 1 face (0.1% area) of pressure-outlet 50.

 absolute pressure limited to 1.000000e+00 in 39171 cells on zone 100 
 12123  7.6359e-05  2.1425e-06  2.2650e-06  1.8383e-05  2.2736e-05  2.8331e-05  3.0652e+01  3.9739e+00  4.3651e-05  4.3651e-05  2:35:10 7877

 Reversed flow on 1 face (0.1% area) of pressure-outlet 50.

 absolute pressure limited to 1.000000e+00 in 39171 cells on zone 100 
 12124  7.6349e-05  2.1421e-06  2.2647e-06  1.8380e-05  2.2735e-05  2.8327e-05  3.0652e+01  3.9739e+00  4.3651e-05  4.3651e-05  2:32:39 7876

 Reversed flow on 1 face (0.1% area) of pressure-outlet 50.

 absolute pressure limited to 1.000000e+00 in 39171 cells on zone 100 
 12125  7.6339e-05  2.1418e-06  2.2644e-06  1.8378e-05  2.2734e-05  2.8324e-05  3.0651e+01  3.9739e+00  4.3650e-05  4.3650e-05  2:31:12 7875

 Reversed flow on 1 face (0.1% area) of pressure-outlet 50.

 absolute pressure limited to 1.000000e+00 in 39171 cells on zone 100 
 12126  7.6329e-05  2.1415e-06  2.2640e-06  1.8375e-05  2.2734e-05  2.8321e-05  3.0651e+01  3.9739e+00  4.3650e-05  4.3650e-05  2:32:43 7874

 Reversed flow on 1 face (0.1% area) of pressure-outlet 50.

 absolute pressure limited to 1.000000e+00 in 39171 cells on zone 100 
 12127  7.6319e-05  2.1411e-06  2.2637e-06  1.8373e-05  2.2733e-05  2.8317e-05  3.0651e+01  3.9740e+00  4.3650e-05  4.3650e-05  2:33:13 7873

 Reversed flow on 1 face (0.1% area) of pressure-outlet 50.

 absolute pressure limited to 1.000000e+00 in 39171 cells on zone 100 
 12128  7.6309e-05  2.1408e-06  2.2634e-06  1.8370e-05  2.2733e-05  2.8314e-05  3.0651e+01  3.9740e+00  4.3650e-05  4.3650e-05  2:30:50 7872

 Reversed flow on 1 face (0.1% area) of pressure-outlet 50.

 absolute pressure limited to 1.000000e+00 in 39171 cells on zone 100 
 12129  7.6299e-05  2.1404e-06  2.2630e-06  1.8367e-05  2.2732e-05  2.8310e-05  3.0650e+01  3.9740e+00  4.3650e-05  4.3650e-05  2:47:30 7871

 Reversed flow on 1 face (0.1% area) of pressure-outlet 50.

 absolute pressure limited to 1.000000e+00 in 39171 cells on zone 100 
 12130  7.6289e-05  2.1401e-06  2.2627e-06  1.8365e-05  2.2731e-05  2.8307e-05  3.0650e+01  3.9740e+00  4.3649e-05  4.3649e-05  2:43:42 7870

 Reversed flow on 1 face (0.1% area) of pressure-outlet 50.

 absolute pressure limited to 1.000000e+00 in 39171 cells on zone 100 
 12131  7.6279e-05  2.1397e-06  2.2624e-06  1.8362e-05  2.2731e-05  2.8304e-05  3.0650e+01  3.9740e+00  4.3649e-05  4.3649e-05  2:42:06 7869

 Reversed flow on 1 face (0.1% area) of pressure-outlet 50.
Absolute pressure limited to 1.000000e+00 in 430901 cells during the last 11 iterations

 absolute pressure limited to 1.000000e+00 in 39171 cells on zone 100 

  iter  continuity  x-velocity  y-velocity      energy           k       omega  exit-stati   exit-mach  mass-flow-  mass-flow-     time/iter
 12132  7.6269e-05  2.1394e-06  2.2621e-06  1.8360e-05  2.2730e-05  2.8300e-05  3.0650e+01  3.9740e+00  4.3649e-05  4.3649e-05  2:39:07 7868

 Reversed flow on 1 face (0.1% area) of pressure-outlet 50.

 absolute pressure limited to 1.000000e+00 in 39172 cells on zone 100 
 12133  7.6259e-05  2.1390e-06  2.2617e-06  1.8357e-05  2.2730e-05  2.8297e-05  3.0649e+01  3.9740e+00  4.3649e-05  4.3649e-05  2:36:21 7867

 Reversed flow on 1 face (0.1% area) of pressure-outlet 50.

 absolute pressure limited to 1.000000e+00 in 39172 cells on zone 100 
 12134  7.6249e-05  2.1387e-06  2.2614e-06  1.8355e-05  2.2729e-05  2.8294e-05  3.0649e+01  3.9740e+00  4.3649e-05  4.3649e-05  2:34:16 7866

 Reversed flow on 1 face (0.1% area) of pressure-outlet 50.

 absolute pressure limited to 1.000000e+00 in 39172 cells on zone 100 
 12135  7.6239e-05  2.1384e-06  2.2611e-06  1.8352e-05  2.2728e-05  2.8290e-05  3.0649e+01  3.9741e+00  4.3648e-05  4.3648e-05  2:32:11 7865

 Reversed flow on 1 face (0.1% area) of pressure-outlet 50.

 absolute pressure limited to 1.000000e+00 in 39172 cells on zone 100 
 12136  7.6229e-05  2.1380e-06  2.2608e-06  1.8350e-05  2.2728e-05  2.8287e-05  3.0648e+01  3.9741e+00  4.3648e-05  4.3648e-05  2:32:28 7864

 Reversed flow on 1 face (0.1% area) of pressure-outlet 50.

 absolute pressure limited to 1.000000e+00 in 39172 cells on zone 100 
 12137  7.6219e-05  2.1376e-06  2.2604e-06  1.8347e-05  2.2727e-05  2.8284e-05  3.0648e+01  3.9741e+00  4.3648e-05  4.3648e-05  2:30:40 7863

 Reversed flow on 1 face (0.1% area) of pressure-outlet 50.

 absolute pressure limited to 1.000000e+00 in 39172 cells on zone 100 
 12138  7.6209e-05  2.1373e-06  2.2601e-06  1.8345e-05  2.2727e-05  2.8280e-05  3.0648e+01  3.9741e+00  4.3648e-05  4.3648e-05  2:29:09 7862

 Reversed flow on 1 face (0.1% area) of pressure-outlet 50.

 absolute pressure limited to 1.000000e+00 in 39172 cells on zone 100 
 12139  7.6199e-05  2.1369e-06  2.2598e-06  1.8342e-05  2.2726e-05  2.8277e-05  3.0648e+01  3.9741e+00  4.3648e-05  4.3648e-05  2:28:20 7861

 Reversed flow on 1 face (0.1% area) of pressure-outlet 50.

 absolute pressure limited to 1.000000e+00 in 39172 cells on zone 100 
 12140  7.6190e-05  2.1366e-06  2.2594e-06  1.8339e-05  2.2725e-05  2.8274e-05  3.0647e+01  3.9741e+00  4.3647e-05  4.3647e-05  2:28:12 7860

 Reversed flow on 1 face (0.1% area) of pressure-outlet 50.

 absolute pressure limited to 1.000000e+00 in 39172 cells on zone 100 
 12141  7.6180e-05  2.1363e-06  2.2591e-06  1.8337e-05  2.2725e-05  2.8270e-05  3.0647e+01  3.9741e+00  4.3647e-05  4.3647e-05  2:43:56 7859

 Reversed flow on 1 face (0.1% area) of pressure-outlet 50.

 absolute pressure limited to 1.000000e+00 in 39172 cells on zone 100 
 12142  7.6170e-05  2.1359e-06  2.2588e-06  1.8334e-05  2.2724e-05  2.8267e-05  3.0647e+01  3.9741e+00  4.3647e-05  4.3647e-05  2:40:43 7858

 Reversed flow on 1 face (0.1% area) of pressure-outlet 50.
Absolute pressure limited to 1.000000e+00 in 430904 cells during the last 11 iterations

 absolute pressure limited to 1.000000e+00 in 39172 cells on zone 100 

  iter  continuity  x-velocity  y-velocity      energy           k       omega  exit-stati   exit-mach  mass-flow-  mass-flow-     time/iter
 12143  7.6160e-05  2.1356e-06  2.2584e-06  1.8332e-05  2.2724e-05  2.8264e-05  3.0646e+01  3.9742e+00  4.3647e-05  4.3647e-05  2:38:11 7857

 Reversed flow on 1 face (0.1% area) of pressure-outlet 50.

 absolute pressure limited to 1.000000e+00 in 39172 cells on zone 100 
 12144  7.6150e-05  2.1352e-06  2.2581e-06  1.8329e-05  2.2723e-05  2.8260e-05  3.0646e+01  3.9742e+00  4.3647e-05  4.3647e-05  2:35:50 7856

 Reversed flow on 1 face (0.1% area) of pressure-outlet 50.

 absolute pressure limited to 1.000000e+00 in 39172 cells on zone 100 
 12145  7.6140e-05  2.1349e-06  2.2578e-06  1.8327e-05  2.2722e-05  2.8257e-05  3.0646e+01  3.9742e+00  4.3646e-05  4.3646e-05  2:33:42 7855

 Reversed flow on 1 face (0.1% area) of pressure-outlet 50.

 absolute pressure limited to 1.000000e+00 in 39172 cells on zone 100 
 12146  7.6130e-05  2.1345e-06  2.2575e-06  1.8324e-05  2.2722e-05  2.8254e-05  3.0646e+01  3.9742e+00  4.3646e-05  4.3646e-05  2:32:05 7854

 Reversed flow on 1 face (0.1% area) of pressure-outlet 50.

 absolute pressure limited to 1.000000e+00 in 39172 cells on zone 100 
 12147  7.6120e-05  2.1342e-06  2.2571e-06  1.8322e-05  2.2721e-05  2.8250e-05  3.0645e+01  3.9742e+00  4.3646e-05  4.3646e-05  2:31:25 7853

 Reversed flow on 1 face (0.1% area) of pressure-outlet 50.

 absolute pressure limited to 1.000000e+00 in 39172 cells on zone 100 
 12148  7.6110e-05  2.1338e-06  2.2568e-06  1.8319e-05  2.2721e-05  2.8247e-05  3.0645e+01  3.9742e+00  4.3646e-05  4.3646e-05  2:30:22 7852

 Reversed flow on 1 face (0.1% area) of pressure-outlet 50.

 absolute pressure limited to 1.000000e+00 in 39172 cells on zone 100 
 12149  7.6100e-05  2.1335e-06  2.2565e-06  1.8317e-05  2.2720e-05  2.8244e-05  3.0645e+01  3.9742e+00  4.3646e-05  4.3646e-05  2:28:49 7851

 Reversed flow on 1 face (0.1% area) of pressure-outlet 50.

 absolute pressure limited to 1.000000e+00 in 39172 cells on zone 100 
 12150  7.6090e-05  2.1331e-06  2.2562e-06  1.8314e-05  2.2719e-05  2.8240e-05  3.0644e+01  3.9742e+00  4.3645e-05  4.3645e-05  2:28:26 7850

 Reversed flow on 1 face (0.1% area) of pressure-outlet 50.

 absolute pressure limited to 1.000000e+00 in 39172 cells on zone 100 
 12151  7.6081e-05  2.1328e-06  2.2559e-06  1.8312e-05  2.2719e-05  2.8237e-05  3.0644e+01  3.9743e+00  4.3645e-05  4.3645e-05  2:26:34 7849

 Reversed flow on 1 face (0.1% area) of pressure-outlet 50.

 absolute pressure limited to 1.000000e+00 in 39172 cells on zone 100 
 12152  7.6071e-05  2.1325e-06  2.2555e-06  1.8309e-05  2.2718e-05  2.8234e-05  3.0644e+01  3.9743e+00  4.3645e-05  4.3645e-05  2:42:36 7848

 Reversed flow on 1 face (0.1% area) of pressure-outlet 50.

 absolute pressure limited to 1.000000e+00 in 39172 cells on zone 100 
 12153  7.6061e-05  2.1321e-06  2.2552e-06  1.8307e-05  2.2718e-05  2.8230e-05  3.0644e+01  3.9743e+00  4.3645e-05  4.3645e-05  2:39:36 7847

 Reversed flow on 1 face (0.1% area) of pressure-outlet 50.
Absolute pressure limited to 1.000000e+00 in 430906 cells during the last 11 iterations

 absolute pressure limited to 1.000000e+00 in 39172 cells on zone 100 

  iter  continuity  x-velocity  y-velocity      energy           k       omega  exit-stati   exit-mach  mass-flow-  mass-flow-     time/iter
 12154  7.6051e-05  2.1318e-06  2.2549e-06  1.8304e-05  2.2717e-05  2.8227e-05  3.0643e+01  3.9743e+00  4.3645e-05  4.3645e-05  2:37:09 7846

 Reversed flow on 1 face (0.1% area) of pressure-outlet 50.

 absolute pressure limited to 1.000000e+00 in 39172 cells on zone 100 
 12155  7.6041e-05  2.1314e-06  2.2546e-06  1.8302e-05  2.2716e-05  2.8224e-05  3.0643e+01  3.9743e+00  4.3644e-05  4.3644e-05  2:36:03 7845

 Reversed flow on 1 face (0.1% area) of pressure-outlet 50.

 absolute pressure limited to 1.000000e+00 in 39172 cells on zone 100 
 12156  7.6031e-05  2.1311e-06  2.2542e-06  1.8299e-05  2.2716e-05  2.8220e-05  3.0643e+01  3.9743e+00  4.3644e-05  4.3644e-05  2:33:32 7844

 Reversed flow on 1 face (0.1% area) of pressure-outlet 50.

 absolute pressure limited to 1.000000e+00 in 39172 cells on zone 100 
 12157  7.6021e-05  2.1308e-06  2.2539e-06  1.8297e-05  2.2715e-05  2.8217e-05  3.0642e+01  3.9743e+00  4.3644e-05  4.3644e-05  2:31:00 7843

 Reversed flow on 1 face (0.1% area) of pressure-outlet 50.

 absolute pressure limited to 1.000000e+00 in 39172 cells on zone 100 
 12158  7.6011e-05  2.1304e-06  2.2536e-06  1.8294e-05  2.2714e-05  2.8214e-05  3.0642e+01  3.9743e+00  4.3644e-05  4.3644e-05  2:31:24 7842

 Reversed flow on 1 face (0.1% area) of pressure-outlet 50.

 absolute pressure limited to 1.000000e+00 in 39172 cells on zone 100 
 12159  7.6002e-05  2.1301e-06  2.2533e-06  1.8292e-05  2.2714e-05  2.8210e-05  3.0642e+01  3.9744e+00  4.3644e-05  4.3644e-05  2:30:39 7841

 Reversed flow on 1 face (0.1% area) of pressure-outlet 50.

 absolute pressure limited to 1.000000e+00 in 39172 cells on zone 100 
 12160  7.5992e-05  2.1297e-06  2.2530e-06  1.8289e-05  2.2713e-05  2.8207e-05  3.0642e+01  3.9744e+00  4.3643e-05  4.3643e-05  2:29:49 7840

 Reversed flow on 1 face (0.1% area) of pressure-outlet 50.

 absolute pressure limited to 1.000000e+00 in 39172 cells on zone 100 
 12161  7.5982e-05  2.1294e-06  2.2526e-06  1.8286e-05  2.2713e-05  2.8204e-05  3.0641e+01  3.9744e+00  4.3643e-05  4.3643e-05  2:30:32 7839

 Reversed flow on 1 face (0.1% area) of pressure-outlet 50.

 absolute pressure limited to 1.000000e+00 in 39172 cells on zone 100 
 12162  7.5972e-05  2.1291e-06  2.2523e-06  1.8284e-05  2.2712e-05  2.8200e-05  3.0641e+01  3.9744e+00  4.3643e-05  4.3643e-05  2:31:01 7838

 Reversed flow on 1 face (0.1% area) of pressure-outlet 50.

 absolute pressure limited to 1.000000e+00 in 39172 cells on zone 100 
 12163  7.5962e-05  2.1287e-06  2.2520e-06  1.8281e-05  2.2711e-05  2.8197e-05  3.0641e+01  3.9744e+00  4.3643e-05  4.3643e-05  2:47:32 7837

 Reversed flow on 1 face (0.1% area) of pressure-outlet 50.

 absolute pressure limited to 1.000000e+00 in 39172 cells on zone 100 
 12164  7.5952e-05  2.1284e-06  2.2517e-06  1.8279e-05  2.2711e-05  2.8194e-05  3.0640e+01  3.9744e+00  4.3643e-05  4.3643e-05  2:42:07 7836

 Reversed flow on 1 face (0.1% area) of pressure-outlet 50.
Absolute pressure limited to 1.000000e+00 in 430903 cells during the last 11 iterations

 absolute pressure limited to 1.000000e+00 in 39172 cells on zone 100 

  iter  continuity  x-velocity  y-velocity      energy           k       omega  exit-stati   exit-mach  mass-flow-  mass-flow-     time/iter
 12165  7.5942e-05  2.1280e-06  2.2513e-06  1.8276e-05  2.2710e-05  2.8190e-05  3.0640e+01  3.9744e+00  4.3642e-05  4.3642e-05  2:38:52 7835

 Reversed flow on 1 face (0.1% area) of pressure-outlet 50.

 absolute pressure limited to 1.000000e+00 in 39172 cells on zone 100 
 12166  7.5932e-05  2.1277e-06  2.2510e-06  1.8274e-05  2.2710e-05  2.8187e-05  3.0640e+01  3.9744e+00  4.3642e-05  4.3642e-05  2:38:16 7834

 Reversed flow on 1 face (0.1% area) of pressure-outlet 50.

 absolute pressure limited to 1.000000e+00 in 39172 cells on zone 100 
 12167  7.5923e-05  2.1274e-06  2.2507e-06  1.8271e-05  2.2709e-05  2.8184e-05  3.0640e+01  3.9745e+00  4.3642e-05  4.3642e-05  2:37:08 7833

 Reversed flow on 1 face (0.1% area) of pressure-outlet 50.

 absolute pressure limited to 1.000000e+00 in 39172 cells on zone 100 
 12168  7.5913e-05  2.1270e-06  2.2504e-06  1.8269e-05  2.2708e-05  2.8181e-05  3.0639e+01  3.9745e+00  4.3642e-05  4.3642e-05  2:34:19 7832

 Reversed flow on 1 face (0.1% area) of pressure-outlet 50.

 absolute pressure limited to 1.000000e+00 in 39172 cells on zone 100 
 12169  7.5903e-05  2.1266e-06  2.2500e-06  1.8266e-05  2.2708e-05  2.8177e-05  3.0639e+01  3.9745e+00  4.3641e-05  4.3641e-05  2:33:40 7831

 Reversed flow on 1 face (0.1% area) of pressure-outlet 50.

 absolute pressure limited to 1.000000e+00 in 39172 cells on zone 100 
 12170  7.5893e-05  2.1263e-06  2.2497e-06  1.8264e-05  2.2707e-05  2.8174e-05  3.0639e+01  3.9745e+00  4.3641e-05  4.3641e-05  2:33:43 7830

 Reversed flow on 1 face (0.1% area) of pressure-outlet 50.

 absolute pressure limited to 1.000000e+00 in 39172 cells on zone 100 
 12171  7.5883e-05  2.1260e-06  2.2494e-06  1.8261e-05  2.2707e-05  2.8171e-05  3.0639e+01  3.9745e+00  4.3641e-05  4.3641e-05  2:32:33 7829

 Reversed flow on 1 face (0.1% area) of pressure-outlet 50.

 absolute pressure limited to 1.000000e+00 in 39172 cells on zone 100 
 12172  7.5873e-05  2.1257e-06  2.2491e-06  1.8259e-05  2.2706e-05  2.8167e-05  3.0638e+01  3.9745e+00  4.3641e-05  4.3641e-05  2:32:57 7828

 Reversed flow on 1 face (0.1% area) of pressure-outlet 50.

 absolute pressure limited to 1.000000e+00 in 39172 cells on zone 100 
 12173  7.5863e-05  2.1253e-06  2.2488e-06  1.8256e-05  2.2705e-05  2.8164e-05  3.0638e+01  3.9745e+00  4.3641e-05  4.3641e-05  2:31:36 7827

 Reversed flow on 1 face (0.1% area) of pressure-outlet 50.

 absolute pressure limited to 1.000000e+00 in 39172 cells on zone 100 
 12174  7.5854e-05  2.1250e-06  2.2485e-06  1.8254e-05  2.2705e-05  2.8161e-05  3.0638e+01  3.9745e+00  4.3640e-05  4.3640e-05  2:48:05 7826

 Reversed flow on 1 face (0.1% area) of pressure-outlet 50.

 absolute pressure limited to 1.000000e+00 in 39172 cells on zone 100 
 12175  7.5844e-05  2.1246e-06  2.2481e-06  1.8251e-05  2.2704e-05  2.8157e-05  3.0637e+01  3.9746e+00  4.3640e-05  4.3640e-05  2:43:36 7825

 Reversed flow on 1 face (0.1% area) of pressure-outlet 50.
Absolute pressure limited to 1.000000e+00 in 430904 cells during the last 11 iterations

 absolute pressure limited to 1.000000e+00 in 39172 cells on zone 100 

  iter  continuity  x-velocity  y-velocity      energy           k       omega  exit-stati   exit-mach  mass-flow-  mass-flow-     time/iter
 12176  7.5834e-05  2.1243e-06  2.2478e-06  1.8249e-05  2.2703e-05  2.8154e-05  3.0637e+01  3.9746e+00  4.3640e-05  4.3640e-05  2:41:32 7824

 Reversed flow on 1 face (0.1% area) of pressure-outlet 50.

 absolute pressure limited to 1.000000e+00 in 39172 cells on zone 100 
 12177  7.5824e-05  2.1240e-06  2.2475e-06  1.8247e-05  2.2703e-05  2.8151e-05  3.0637e+01  3.9746e+00  4.3640e-05  4.3640e-05  2:37:24 7823

 Reversed flow on 1 face (0.1% area) of pressure-outlet 50.

 absolute pressure limited to 1.000000e+00 in 39172 cells on zone 100 
 12178  7.5814e-05  2.1236e-06  2.2472e-06  1.8244e-05  2.2702e-05  2.8147e-05  3.0637e+01  3.9746e+00  4.3640e-05  4.3640e-05  2:34:00 7822

 Reversed flow on 1 face (0.1% area) of pressure-outlet 50.

 absolute pressure limited to 1.000000e+00 in 39172 cells on zone 100 
 12179  7.5804e-05  2.1233e-06  2.2468e-06  1.8242e-05  2.2702e-05  2.8144e-05  3.0636e+01  3.9746e+00  4.3639e-05  4.3639e-05  2:32:19 7821

 Reversed flow on 1 face (0.1% area) of pressure-outlet 50.

 absolute pressure limited to 1.000000e+00 in 39172 cells on zone 100 
 12180  7.5795e-05  2.1230e-06  2.2465e-06  1.8239e-05  2.2701e-05  2.8141e-05  3.0636e+01  3.9746e+00  4.3639e-05  4.3639e-05  2:29:55 7820

 Reversed flow on 1 face (0.1% area) of pressure-outlet 50.

 absolute pressure limited to 1.000000e+00 in 39172 cells on zone 100 
 12181  7.5785e-05  2.1226e-06  2.2462e-06  1.8237e-05  2.2700e-05  2.8137e-05  3.0636e+01  3.9746e+00  4.3639e-05  4.3639e-05  2:28:17 7819

 Reversed flow on 1 face (0.1% area) of pressure-outlet 50.

 absolute pressure limited to 1.000000e+00 in 39173 cells on zone 100 
 12182  7.5775e-05  2.1222e-06  2.2459e-06  1.8234e-05  2.2700e-05  2.8134e-05  3.0635e+01  3.9746e+00  4.3639e-05  4.3639e-05  2:27:55 7818

 Reversed flow on 1 face (0.1% area) of pressure-outlet 50.

 absolute pressure limited to 1.000000e+00 in 39173 cells on zone 100 
 12183  7.5765e-05  2.1219e-06  2.2456e-06  1.8232e-05  2.2699e-05  2.8131e-05  3.0635e+01  3.9747e+00  4.3639e-05  4.3639e-05  2:28:54 7817

 Reversed flow on 1 face (0.1% area) of pressure-outlet 50.

 absolute pressure limited to 1.000000e+00 in 39173 cells on zone 100 
 12184  7.5755e-05  2.1216e-06  2.2452e-06  1.8229e-05  2.2699e-05  2.8128e-05  3.0635e+01  3.9747e+00  4.3638e-05  4.3638e-05  2:27:42 7816

 Reversed flow on 1 face (0.1% area) of pressure-outlet 50.

 absolute pressure limited to 1.000000e+00 in 39173 cells on zone 100 
 12185  7.5745e-05  2.1213e-06  2.2449e-06  1.8227e-05  2.2698e-05  2.8124e-05  3.0635e+01  3.9747e+00  4.3638e-05  4.3638e-05  2:42:27 7815

 Reversed flow on 1 face (0.1% area) of pressure-outlet 50.

 absolute pressure limited to 1.000000e+00 in 39173 cells on zone 100 
 12186  7.5736e-05  2.1209e-06  2.2446e-06  1.8224e-05  2.2697e-05  2.8121e-05  3.0634e+01  3.9747e+00  4.3638e-05  4.3638e-05  2:38:11 7814

 Reversed flow on 1 face (0.1% area) of pressure-outlet 50.
Absolute pressure limited to 1.000000e+00 in 430908 cells during the last 11 iterations

 absolute pressure limited to 1.000000e+00 in 39173 cells on zone 100 

  iter  continuity  x-velocity  y-velocity      energy           k       omega  exit-stati   exit-mach  mass-flow-  mass-flow-     time/iter
 12187  7.5726e-05  2.1205e-06  2.2442e-06  1.8222e-05  2.2697e-05  2.8118e-05  3.0634e+01  3.9747e+00  4.3638e-05  4.3638e-05  2:36:41 7813

 Reversed flow on 1 face (0.1% area) of pressure-outlet 50.

 absolute pressure limited to 1.000000e+00 in 39173 cells on zone 100 
 12188  7.5716e-05  2.1202e-06  2.2439e-06  1.8219e-05  2.2696e-05  2.8114e-05  3.0634e+01  3.9747e+00  4.3638e-05  4.3638e-05  2:34:32 7812

 Reversed flow on 1 face (0.1% area) of pressure-outlet 50.

 absolute pressure limited to 1.000000e+00 in 39173 cells on zone 100 
 12189  7.5706e-05  2.1199e-06  2.2436e-06  1.8217e-05  2.2695e-05  2.8111e-05  3.0633e+01  3.9747e+00  4.3637e-05  4.3637e-05  2:31:54 7811

 Reversed flow on 1 face (0.1% area) of pressure-outlet 50.

 absolute pressure limited to 1.000000e+00 in 39173 cells on zone 100 
 12190  7.5696e-05  2.1196e-06  2.2433e-06  1.8214e-05  2.2695e-05  2.8108e-05  3.0633e+01  3.9747e+00  4.3637e-05  4.3637e-05  2:30:07 7810

 Reversed flow on 1 face (0.1% area) of pressure-outlet 50.

 absolute pressure limited to 1.000000e+00 in 39173 cells on zone 100 
 12191  7.5687e-05  2.1192e-06  2.2430e-06  1.8212e-05  2.2694e-05  2.8104e-05  3.0633e+01  3.9748e+00  4.3637e-05  4.3637e-05  2:28:01 7809

 Reversed flow on 1 face (0.1% area) of pressure-outlet 50.

 absolute pressure limited to 1.000000e+00 in 39173 cells on zone 100 
 12192  7.5677e-05  2.1189e-06  2.2426e-06  1.8209e-05  2.2694e-05  2.8101e-05  3.0633e+01  3.9748e+00  4.3637e-05  4.3637e-05  2:27:42 7808

 Reversed flow on 1 face (0.1% area) of pressure-outlet 50.

 absolute pressure limited to 1.000000e+00 in 39173 cells on zone 100 
 12193  7.5667e-05  2.1185e-06  2.2423e-06  1.8207e-05  2.2693e-05  2.8098e-05  3.0632e+01  3.9748e+00  4.3637e-05  4.3637e-05  2:27:22 7807

 Reversed flow on 1 face (0.1% area) of pressure-outlet 50.

 absolute pressure limited to 1.000000e+00 in 39173 cells on zone 100 
 12194  7.5657e-05  2.1182e-06  2.2420e-06  1.8204e-05  2.2692e-05  2.8095e-05  3.0632e+01  3.9748e+00  4.3636e-05  4.3636e-05  2:26:20 7806

 Reversed flow on 1 face (0.1% area) of pressure-outlet 50.

 absolute pressure limited to 1.000000e+00 in 39173 cells on zone 100 
 12195  7.5647e-05  2.1179e-06  2.2417e-06  1.8202e-05  2.2692e-05  2.8091e-05  3.0632e+01  3.9748e+00  4.3636e-05  4.3636e-05  2:27:43 7805

 Reversed flow on 1 face (0.1% area) of pressure-outlet 50.

 absolute pressure limited to 1.000000e+00 in 39173 cells on zone 100 
 12196  7.5638e-05  2.1175e-06  2.2414e-06  1.8199e-05  2.2691e-05  2.8088e-05  3.0632e+01  3.9748e+00  4.3636e-05  4.3636e-05  2:42:44 7804

 Reversed flow on 1 face (0.1% area) of pressure-outlet 50.

 absolute pressure limited to 1.000000e+00 in 39173 cells on zone 100 
 12197  7.5628e-05  2.1172e-06  2.2411e-06  1.8197e-05  2.2691e-05  2.8085e-05  3.0631e+01  3.9748e+00  4.3636e-05  4.3636e-05  2:40:38 7803

 Reversed flow on 1 face (0.1% area) of pressure-outlet 50.
Absolute pressure limited to 1.000000e+00 in 430907 cells during the last 11 iterations

 absolute pressure limited to 1.000000e+00 in 39172 cells on zone 100 

  iter  continuity  x-velocity  y-velocity      energy           k       omega  exit-stati   exit-mach  mass-flow-  mass-flow-     time/iter
 12198  7.5618e-05  2.1169e-06  2.2407e-06  1.8194e-05  2.2690e-05  2.8081e-05  3.0631e+01  3.9748e+00  4.3636e-05  4.3636e-05  2:37:29 7802

 Reversed flow on 1 face (0.1% area) of pressure-outlet 50.

 absolute pressure limited to 1.000000e+00 in 39171 cells on zone 100 
 12199  7.5608e-05  2.1165e-06  2.2404e-06  1.8192e-05  2.2689e-05  2.8078e-05  3.0631e+01  3.9748e+00  4.3635e-05  4.3635e-05  2:35:03 7801

 Reversed flow on 1 face (0.1% area) of pressure-outlet 50.

 absolute pressure limited to 1.000000e+00 in 39171 cells on zone 100 
 12200  7.5598e-05  2.1162e-06  2.2401e-06  1.8190e-05  2.2689e-05  2.8075e-05  3.0630e+01  3.9749e+00  4.3635e-05  4.3635e-05  2:32:23 7800

 Reversed flow on 1 face (0.1% area) of pressure-outlet 50.

 absolute pressure limited to 1.000000e+00 in 39171 cells on zone 100 
 12201  7.5589e-05  2.1159e-06  2.2398e-06  1.8187e-05  2.2688e-05  2.8072e-05  3.0630e+01  3.9749e+00  4.3635e-05  4.3635e-05  2:30:23 7799

 Reversed flow on 1 face (0.1% area) of pressure-outlet 50.

 absolute pressure limited to 1.000000e+00 in 39171 cells on zone 100 
 12202  7.5579e-05  2.1155e-06  2.2395e-06  1.8185e-05  2.2688e-05  2.8068e-05  3.0630e+01  3.9749e+00  4.3635e-05  4.3635e-05  2:29:34 7798

 Reversed flow on 1 face (0.1% area) of pressure-outlet 50.

 absolute pressure limited to 1.000000e+00 in 39171 cells on zone 100 
 12203  7.5569e-05  2.1152e-06  2.2392e-06  1.8182e-05  2.2687e-05  2.8065e-05  3.0630e+01  3.9749e+00  4.3635e-05  4.3635e-05  2:29:45 7797

 Reversed flow on 1 face (0.1% area) of pressure-outlet 50.

 absolute pressure limited to 1.000000e+00 in 39171 cells on zone 100 
 12204  7.5559e-05  2.1149e-06  2.2388e-06  1.8180e-05  2.2686e-05  2.8062e-05  3.0629e+01  3.9749e+00  4.3634e-05  4.3634e-05  2:28:02 7796

 Reversed flow on 1 face (0.1% area) of pressure-outlet 50.

 absolute pressure limited to 1.000000e+00 in 39171 cells on zone 100 
 12205  7.5550e-05  2.1145e-06  2.2385e-06  1.8177e-05  2.2686e-05  2.8058e-05  3.0629e+01  3.9749e+00  4.3634e-05  4.3634e-05  2:27:10 7795

 Reversed flow on 1 face (0.1% area) of pressure-outlet 50.

 absolute pressure limited to 1.000000e+00 in 39171 cells on zone 100 
 12206  7.5540e-05  2.1142e-06  2.2382e-06  1.8175e-05  2.2685e-05  2.8055e-05  3.0629e+01  3.9749e+00  4.3634e-05  4.3634e-05  2:27:31 7794

 Reversed flow on 1 face (0.1% area) of pressure-outlet 50.

 absolute pressure limited to 1.000000e+00 in 39171 cells on zone 100 
 12207  7.5530e-05  2.1138e-06  2.2379e-06  1.8172e-05  2.2684e-05  2.8052e-05  3.0628e+01  3.9749e+00  4.3634e-05  4.3634e-05  2:44:34 7793

 Reversed flow on 1 face (0.1% area) of pressure-outlet 50.

 absolute pressure limited to 1.000000e+00 in 39171 cells on zone 100 
 12208  7.5520e-05  2.1135e-06  2.2376e-06  1.8170e-05  2.2684e-05  2.8049e-05  3.0628e+01  3.9750e+00  4.3634e-05  4.3634e-05  2:42:12 7792

 Reversed flow on 1 face (0.1% area) of pressure-outlet 50.
Absolute pressure limited to 1.000000e+00 in 430902 cells during the last 11 iterations

 absolute pressure limited to 1.000000e+00 in 39171 cells on zone 100 

  iter  continuity  x-velocity  y-velocity      energy           k       omega  exit-stati   exit-mach  mass-flow-  mass-flow-     time/iter
 12209  7.5510e-05  2.1132e-06  2.2373e-06  1.8167e-05  2.2683e-05  2.8045e-05  3.0628e+01  3.9750e+00  4.3633e-05  4.3633e-05  2:39:37 7791

 Reversed flow on 1 face (0.1% area) of pressure-outlet 50.

 absolute pressure limited to 1.000000e+00 in 39171 cells on zone 100 
 12210  7.5501e-05  2.1128e-06  2.2369e-06  1.8165e-05  2.2683e-05  2.8042e-05  3.0628e+01  3.9750e+00  4.3633e-05  4.3633e-05  2:36:40 7790

 Reversed flow on 1 face (0.1% area) of pressure-outlet 50.

 absolute pressure limited to 1.000000e+00 in 39171 cells on zone 100 
 12211  7.5491e-05  2.1125e-06  2.2366e-06  1.8163e-05  2.2682e-05  2.8039e-05  3.0627e+01  3.9750e+00  4.3633e-05  4.3633e-05  2:35:47 7789

 Reversed flow on 1 face (0.1% area) of pressure-outlet 50.

 absolute pressure limited to 1.000000e+00 in 39171 cells on zone 100 
 12212  7.5481e-05  2.1121e-06  2.2363e-06  1.8160e-05  2.2681e-05  2.8035e-05  3.0627e+01  3.9750e+00  4.3633e-05  4.3633e-05  2:34:33 7788

 Reversed flow on 1 face (0.1% area) of pressure-outlet 50.

 absolute pressure limited to 1.000000e+00 in 39171 cells on zone 100 
 12213  7.5471e-05  2.1118e-06  2.2360e-06  1.8158e-05  2.2681e-05  2.8032e-05  3.0627e+01  3.9750e+00  4.3633e-05  4.3633e-05  2:32:55 7787

 Reversed flow on 1 face (0.1% area) of pressure-outlet 50.

 absolute pressure limited to 1.000000e+00 in 39171 cells on zone 100 
 12214  7.5462e-05  2.1115e-06  2.2357e-06  1.8155e-05  2.2680e-05  2.8029e-05  3.0627e+01  3.9750e+00  4.3632e-05  4.3632e-05  2:31:26 7786

 Reversed flow on 1 face (0.1% area) of pressure-outlet 50.

 absolute pressure limited to 1.000000e+00 in 39171 cells on zone 100 
 12215  7.5452e-05  2.1112e-06  2.2353e-06  1.8153e-05  2.2680e-05  2.8026e-05  3.0626e+01  3.9750e+00  4.3632e-05  4.3632e-05  2:29:25 7785

 Reversed flow on 1 face (0.1% area) of pressure-outlet 50.

 absolute pressure limited to 1.000000e+00 in 39171 cells on zone 100 
 12216  7.5442e-05  2.1108e-06  2.2350e-06  1.8150e-05  2.2679e-05  2.8022e-05  3.0626e+01  3.9751e+00  4.3632e-05  4.3632e-05  2:29:14 7784

 Reversed flow on 1 face (0.1% area) of pressure-outlet 50.

 absolute pressure limited to 1.000000e+00 in 39171 cells on zone 100 
 12217  7.5432e-05  2.1105e-06  2.2347e-06  1.8148e-05  2.2678e-05  2.8019e-05  3.0626e+01  3.9751e+00  4.3632e-05  4.3632e-05  2:28:30 7783

 Reversed flow on 1 face (0.1% area) of pressure-outlet 50.

 absolute pressure limited to 1.000000e+00 in 39171 cells on zone 100 
 12218  7.5423e-05  2.1102e-06  2.2344e-06  1.8145e-05  2.2678e-05  2.8016e-05  3.0625e+01  3.9751e+00  4.3632e-05  4.3632e-05  2:43:20 7782

 Reversed flow on 1 face (0.1% area) of pressure-outlet 50.

 absolute pressure limited to 1.000000e+00 in 39171 cells on zone 100 
 12219  7.5413e-05  2.1098e-06  2.2341e-06  1.8143e-05  2.2677e-05  2.8012e-05  3.0625e+01  3.9751e+00  4.3631e-05  4.3631e-05  2:39:53 7781

 Reversed flow on 1 face (0.1% area) of pressure-outlet 50.
Absolute pressure limited to 1.000000e+00 in 430900 cells during the last 11 iterations

 absolute pressure limited to 1.000000e+00 in 39171 cells on zone 100 

  iter  continuity  x-velocity  y-velocity      energy           k       omega  exit-stati   exit-mach  mass-flow-  mass-flow-     time/iter
 12220  7.5403e-05  2.1095e-06  2.2338e-06  1.8141e-05  2.2677e-05  2.8009e-05  3.0625e+01  3.9751e+00  4.3631e-05  4.3631e-05  2:36:47 7780

 Reversed flow on 1 face (0.1% area) of pressure-outlet 50.

 absolute pressure limited to 1.000000e+00 in 39171 cells on zone 100 
 12221  7.5393e-05  2.1092e-06  2.2335e-06  1.8138e-05  2.2676e-05  2.8006e-05  3.0625e+01  3.9751e+00  4.3631e-05  4.3631e-05  2:34:33 7779

 Reversed flow on 1 face (0.1% area) of pressure-outlet 50.

 absolute pressure limited to 1.000000e+00 in 39171 cells on zone 100 
 12222  7.5384e-05  2.1089e-06  2.2331e-06  1.8136e-05  2.2675e-05  2.8003e-05  3.0624e+01  3.9751e+00  4.3631e-05  4.3631e-05  2:32:47 7778

 Reversed flow on 1 face (0.1% area) of pressure-outlet 50.

 absolute pressure limited to 1.000000e+00 in 39171 cells on zone 100 
 12223  7.5374e-05  2.1085e-06  2.2328e-06  1.8133e-05  2.2675e-05  2.7999e-05  3.0624e+01  3.9751e+00  4.3631e-05  4.3631e-05  2:39:00 7777

 Reversed flow on 1 face (0.1% area) of pressure-outlet 50.

 absolute pressure limited to 1.000000e+00 in 39171 cells on zone 100 
 12224  7.5364e-05  2.1081e-06  2.2325e-06  1.8131e-05  2.2674e-05  2.7996e-05  3.0624e+01  3.9752e+00  4.3630e-05  4.3630e-05  2:35:47 7776

 Reversed flow on 1 face (0.1% area) of pressure-outlet 50.

 absolute pressure limited to 1.000000e+00 in 39171 cells on zone 100 
 12225  7.5354e-05  2.1078e-06  2.2322e-06  1.8128e-05  2.2674e-05  2.7993e-05  3.0623e+01  3.9752e+00  4.3630e-05  4.3630e-05  2:33:56 7775

 Reversed flow on 1 face (0.1% area) of pressure-outlet 50.

 absolute pressure limited to 1.000000e+00 in 39171 cells on zone 100 
 12226  7.5345e-05  2.1074e-06  2.2319e-06  1.8126e-05  2.2673e-05  2.7989e-05  3.0623e+01  3.9752e+00  4.3630e-05  4.3630e-05  2:31:52 7774

 Reversed flow on 1 face (0.1% area) of pressure-outlet 50.

 absolute pressure limited to 1.000000e+00 in 39171 cells on zone 100 
 12227  7.5335e-05  2.1071e-06  2.2316e-06  1.8124e-05  2.2672e-05  2.7986e-05  3.0623e+01  3.9752e+00  4.3630e-05  4.3630e-05  2:33:29 7773

 Reversed flow on 1 face (0.1% area) of pressure-outlet 50.

 absolute pressure limited to 1.000000e+00 in 39171 cells on zone 100 
 12228  7.5325e-05  2.1067e-06  2.2312e-06  1.8121e-05  2.2672e-05  2.7983e-05  3.0623e+01  3.9752e+00  4.3630e-05  4.3630e-05  2:31:24 7772

 Reversed flow on 1 face (0.1% area) of pressure-outlet 50.

 absolute pressure limited to 1.000000e+00 in 39171 cells on zone 100 
 12229  7.5316e-05  2.1064e-06  2.2309e-06  1.8119e-05  2.2671e-05  2.7980e-05  3.0622e+01  3.9752e+00  4.3629e-05  4.3629e-05  2:28:42 7771

 Reversed flow on 1 face (0.1% area) of pressure-outlet 50.

 absolute pressure limited to 1.000000e+00 in 39171 cells on zone 100 
 12230  7.5306e-05  2.1060e-06  2.2306e-06  1.8116e-05  2.2671e-05  2.7976e-05  3.0622e+01  3.9752e+00  4.3629e-05  4.3629e-05  2:41:35 7770

 Reversed flow on 1 face (0.1% area) of pressure-outlet 50.
Absolute pressure limited to 1.000000e+00 in 430900 cells during the last 11 iterations

 absolute pressure limited to 1.000000e+00 in 39171 cells on zone 100 

  iter  continuity  x-velocity  y-velocity      energy           k       omega  exit-stati   exit-mach  mass-flow-  mass-flow-     time/iter
 12231  7.5296e-05  2.1057e-06  2.2303e-06  1.8114e-05  2.2670e-05  2.7973e-05  3.0622e+01  3.9752e+00  4.3629e-05  4.3629e-05  2:35:50 7769

 Reversed flow on 1 face (0.1% area) of pressure-outlet 50.

 absolute pressure limited to 1.000000e+00 in 39171 cells on zone 100 
 12232  7.5286e-05  2.1053e-06  2.2300e-06  1.8111e-05  2.2669e-05  2.7970e-05  3.0622e+01  3.9752e+00  4.3629e-05  4.3629e-05  2:30:12 7768

 Reversed flow on 1 face (0.1% area) of pressure-outlet 50.

 absolute pressure limited to 1.000000e+00 in 39171 cells on zone 100 
 12233  7.5277e-05  2.1050e-06  2.2297e-06  1.8109e-05  2.2669e-05  2.7967e-05  3.0621e+01  3.9753e+00  4.3629e-05  4.3629e-05  2:25:06 7767

 Reversed flow on 1 face (0.1% area) of pressure-outlet 50.

 absolute pressure limited to 1.000000e+00 in 39171 cells on zone 100 
 12234  7.5267e-05  2.1046e-06  2.2293e-06  1.8107e-05  2.2668e-05  2.7963e-05  3.0621e+01  3.9753e+00  4.3628e-05  4.3628e-05  2:20:55 7766

 Reversed flow on 1 face (0.1% area) of pressure-outlet 50.

 absolute pressure limited to 1.000000e+00 in 39171 cells on zone 100 
 12235  7.5257e-05  2.1043e-06  2.2290e-06  1.8104e-05  2.2667e-05  2.7960e-05  3.0621e+01  3.9753e+00  4.3628e-05  4.3628e-05  2:17:02 7765

 Reversed flow on 1 face (0.1% area) of pressure-outlet 50.

 absolute pressure limited to 1.000000e+00 in 39171 cells on zone 100 
 12236  7.5248e-05  2.1039e-06  2.2287e-06  1.8102e-05  2.2667e-05  2.7957e-05  3.0620e+01  3.9753e+00  4.3628e-05  4.3628e-05  2:15:01 7764

 Reversed flow on 1 face (0.1% area) of pressure-outlet 50.

 absolute pressure limited to 1.000000e+00 in 39171 cells on zone 100 
 12237  7.5238e-05  2.1036e-06  2.2284e-06  1.8099e-05  2.2666e-05  2.7954e-05  3.0620e+01  3.9753e+00  4.3628e-05  4.3628e-05  2:11:56 7763

 Reversed flow on 1 face (0.1% area) of pressure-outlet 50.

 absolute pressure limited to 1.000000e+00 in 39171 cells on zone 100 
 12238  7.5228e-05  2.1032e-06  2.2281e-06  1.8097e-05  2.2666e-05  2.7950e-05  3.0620e+01  3.9753e+00  4.3628e-05  4.3628e-05  2:11:06 7762

 Reversed flow on 1 face (0.1% area) of pressure-outlet 50.

 absolute pressure limited to 1.000000e+00 in 39171 cells on zone 100 
 12239  7.5218e-05  2.1029e-06  2.2278e-06  1.8094e-05  2.2665e-05  2.7947e-05  3.0620e+01  3.9753e+00  4.3627e-05  4.3627e-05  2:08:35 7761

 Reversed flow on 1 face (0.1% area) of pressure-outlet 50.

 absolute pressure limited to 1.000000e+00 in 39171 cells on zone 100 
 12240  7.5209e-05  2.1025e-06  2.2275e-06  1.8092e-05  2.2664e-05  2.7944e-05  3.0619e+01  3.9753e+00  4.3627e-05  4.3627e-05  2:06:48 7760

 Reversed flow on 1 face (0.1% area) of pressure-outlet 50.

 absolute pressure limited to 1.000000e+00 in 39171 cells on zone 100 
 12241  7.5199e-05  2.1022e-06  2.2272e-06  1.8090e-05  2.2664e-05  2.7940e-05  3.0619e+01  3.9754e+00  4.3627e-05  4.3627e-05  2:18:28 7759

 Reversed flow on 1 face (0.1% area) of pressure-outlet 50.
Absolute pressure limited to 1.000000e+00 in 430897 cells during the last 11 iterations

 absolute pressure limited to 1.000000e+00 in 39171 cells on zone 100 

  iter  continuity  x-velocity  y-velocity      energy           k       omega  exit-stati   exit-mach  mass-flow-  mass-flow-     time/iter
 12242  7.5189e-05  2.1019e-06  2.2269e-06  1.8087e-05  2.2663e-05  2.7937e-05  3.0619e+01  3.9754e+00  4.3627e-05  4.3627e-05  2:14:32 7758

 Reversed flow on 1 face (0.1% area) of pressure-outlet 50.

 absolute pressure limited to 1.000000e+00 in 39171 cells on zone 100 
 12243  7.5180e-05  2.1015e-06  2.2266e-06  1.8085e-05  2.2663e-05  2.7934e-05  3.0619e+01  3.9754e+00  4.3627e-05  4.3627e-05  2:12:17 7757

 Reversed flow on 1 face (0.1% area) of pressure-outlet 50.

 absolute pressure limited to 1.000000e+00 in 39171 cells on zone 100 
 12244  7.5170e-05  2.1012e-06  2.2262e-06  1.8082e-05  2.2662e-05  2.7931e-05  3.0618e+01  3.9754e+00  4.3626e-05  4.3626e-05  2:10:12 7756

 Reversed flow on 1 face (0.1% area) of pressure-outlet 50.

 absolute pressure limited to 1.000000e+00 in 39171 cells on zone 100 
 12245  7.5160e-05  2.1008e-06  2.2259e-06  1.8080e-05  2.2661e-05  2.7927e-05  3.0618e+01  3.9754e+00  4.3626e-05  4.3626e-05  2:10:01 7755

 Reversed flow on 1 face (0.1% area) of pressure-outlet 50.

 absolute pressure limited to 1.000000e+00 in 39171 cells on zone 100 
 12246  7.5151e-05  2.1005e-06  2.2256e-06  1.8078e-05  2.2661e-05  2.7924e-05  3.0618e+01  3.9754e+00  4.3626e-05  4.3626e-05  2:08:19 7754

 Reversed flow on 1 face (0.1% area) of pressure-outlet 50.

 absolute pressure limited to 1.000000e+00 in 39171 cells on zone 100 
 12247  7.5141e-05  2.1001e-06  2.2253e-06  1.8075e-05  2.2660e-05  2.7921e-05  3.0617e+01  3.9754e+00  4.3626e-05  4.3626e-05  2:06:09 7753

 Reversed flow on 1 face (0.1% area) of pressure-outlet 50.

 absolute pressure limited to 1.000000e+00 in 39171 cells on zone 100 
 12248  7.5131e-05  2.0998e-06  2.2250e-06  1.8073e-05  2.2660e-05  2.7918e-05  3.0617e+01  3.9754e+00  4.3626e-05  4.3626e-05  2:04:46 7752

 Reversed flow on 1 face (0.1% area) of pressure-outlet 50.

 absolute pressure limited to 1.000000e+00 in 39171 cells on zone 100 
 12249  7.5122e-05  2.0995e-06  2.2247e-06  1.8070e-05  2.2659e-05  2.7914e-05  3.0617e+01  3.9755e+00  4.3625e-05  4.3625e-05  2:03:57 7751

 Reversed flow on 1 face (0.1% area) of pressure-outlet 50.

 absolute pressure limited to 1.000000e+00 in 39171 cells on zone 100 
 12250  7.5112e-05  2.0991e-06  2.2243e-06  1.8068e-05  2.2658e-05  2.7911e-05  3.0617e+01  3.9755e+00  4.3625e-05  4.3625e-05  2:02:39 7750

 Reversed flow on 1 face (0.1% area) of pressure-outlet 50.

 absolute pressure limited to 1.000000e+00 in 39171 cells on zone 100 
 12251  7.5102e-05  2.0988e-06  2.2240e-06  1.8066e-05  2.2658e-05  2.7908e-05  3.0616e+01  3.9755e+00  4.3625e-05  4.3625e-05  2:01:29 7749

 Reversed flow on 1 face (0.1% area) of pressure-outlet 50.

 absolute pressure limited to 1.000000e+00 in 39171 cells on zone 100 
 12252  7.5092e-05  2.0985e-06  2.2238e-06  1.8063e-05  2.2657e-05  2.7905e-05  3.0616e+01  3.9755e+00  4.3625e-05  4.3625e-05  2:13:27 7748

 Reversed flow on 1 face (0.1% area) of pressure-outlet 50.
Absolute pressure limited to 1.000000e+00 in 430901 cells during the last 11 iterations

 absolute pressure limited to 1.000000e+00 in 39171 cells on zone 100 

  iter  continuity  x-velocity  y-velocity      energy           k       omega  exit-stati   exit-mach  mass-flow-  mass-flow-     time/iter
 12253  7.5083e-05  2.0981e-06  2.2234e-06  1.8061e-05  2.2657e-05  2.7901e-05  3.0616e+01  3.9755e+00  4.3625e-05  4.3625e-05  2:10:33 7747

 Reversed flow on 1 face (0.1% area) of pressure-outlet 50.

 absolute pressure limited to 1.000000e+00 in 39171 cells on zone 100 
[...]

 Reversed flow on 1 face (0.1% area) of pressure-outlet 50.

 absolute pressure limited to 1.000000e+00 in 39094 cells on zone 100 
 19967  3.4501e-05  1.1503e-06  1.3592e-06  1.0594e-05  2.3624e-05  1.3859e-05  2.9678e+01  4.0234e+00  4.2801e-05  4.2801e-05  0:00:55   33

 Reversed flow on 1 face (0.1% area) of pressure-outlet 50.

 absolute pressure limited to 1.000000e+00 in 39094 cells on zone 100 
 19968  3.4498e-05  1.1502e-06  1.3592e-06  1.0593e-05  2.3624e-05  1.3858e-05  2.9678e+01  4.0234e+00  4.2801e-05  4.2801e-05  0:00:52   32

 Reversed flow on 1 face (0.1% area) of pressure-outlet 50.

 absolute pressure limited to 1.000000e+00 in 39094 cells on zone 100 
 19969  3.4495e-05  1.1502e-06  1.3591e-06  1.0593e-05  2.3625e-05  1.3857e-05  2.9678e+01  4.0234e+00  4.2801e-05  4.2801e-05  0:00:49   31

 Reversed flow on 1 face (0.1% area) of pressure-outlet 50.

 absolute pressure limited to 1.000000e+00 in 39094 cells on zone 100 
 19970  3.4492e-05  1.1502e-06  1.3591e-06  1.0592e-05  2.3625e-05  1.3855e-05  2.9678e+01  4.0234e+00  4.2801e-05  4.2801e-05  0:00:46   30

 Reversed flow on 1 face (0.1% area) of pressure-outlet 50.

 absolute pressure limited to 1.000000e+00 in 39093 cells on zone 100 
 19971  3.4489e-05  1.1501e-06  1.3590e-06  1.0591e-05  2.3625e-05  1.3854e-05  2.9678e+01  4.0234e+00  4.2801e-05  4.2801e-05  0:00:43   29

 Reversed flow on 1 face (0.1% area) of pressure-outlet 50.

 absolute pressure limited to 1.000000e+00 in 39093 cells on zone 100 
 19972  3.4486e-05  1.1501e-06  1.3590e-06  1.0591e-05  2.3626e-05  1.3853e-05  2.9678e+01  4.0234e+00  4.2801e-05  4.2801e-05  0:00:41   28

 Reversed flow on 1 face (0.1% area) of pressure-outlet 50.

 absolute pressure limited to 1.000000e+00 in 39093 cells on zone 100 
 19973  3.4483e-05  1.1501e-06  1.3590e-06  1.0590e-05  2.3626e-05  1.3852e-05  2.9678e+01  4.0234e+00  4.2801e-05  4.2801e-05  0:00:39   27

 Reversed flow on 1 face (0.1% area) of pressure-outlet 50.

 absolute pressure limited to 1.000000e+00 in 39093 cells on zone 100 
 19974  3.4480e-05  1.1500e-06  1.3589e-06  1.0589e-05  2.3626e-05  1.3851e-05  2.9678e+01  4.0234e+00  4.2801e-05  4.2801e-05  0:00:37   26

 Reversed flow on 1 face (0.1% area) of pressure-outlet 50.
Absolute pressure limited to 1.000000e+00 in 430030 cells during the last 11 iterations

 absolute pressure limited to 1.000000e+00 in 39093 cells on zone 100 

  iter  continuity  x-velocity  y-velocity      energy           k       omega  exit-stati   exit-mach  mass-flow-  mass-flow-     time/iter
 19975  3.4477e-05  1.1500e-06  1.3589e-06  1.0589e-05  2.3627e-05  1.3850e-05  2.9678e+01  4.0234e+00  4.2801e-05  4.2801e-05  0:00:35   25

 Reversed flow on 1 face (0.1% area) of pressure-outlet 50.

 absolute pressure limited to 1.000000e+00 in 39093 cells on zone 100 
 19976  3.4475e-05  1.1500e-06  1.3588e-06  1.0588e-05  2.3627e-05  1.3849e-05  2.9678e+01  4.0234e+00  4.2801e-05  4.2801e-05  0:00:36   24

 Reversed flow on 1 face (0.1% area) of pressure-outlet 50.

 absolute pressure limited to 1.000000e+00 in 39093 cells on zone 100 
 19977  3.4472e-05  1.1499e-06  1.3588e-06  1.0588e-05  2.3627e-05  1.3848e-05  2.9678e+01  4.0234e+00  4.2801e-05  4.2801e-05  0:00:34   23

 Reversed flow on 1 face (0.1% area) of pressure-outlet 50.

 absolute pressure limited to 1.000000e+00 in 39093 cells on zone 100 
 19978  3.4469e-05  1.1499e-06  1.3588e-06  1.0587e-05  2.3628e-05  1.3847e-05  2.9677e+01  4.0234e+00  4.2801e-05  4.2801e-05  0:00:32   22

 Reversed flow on 1 face (0.1% area) of pressure-outlet 50.

 absolute pressure limited to 1.000000e+00 in 39093 cells on zone 100 
 19979  3.4466e-05  1.1499e-06  1.3587e-06  1.0586e-05  2.3628e-05  1.3846e-05  2.9677e+01  4.0234e+00  4.2801e-05  4.2801e-05  0:00:29   21

 Reversed flow on 1 face (0.1% area) of pressure-outlet 50.

 absolute pressure limited to 1.000000e+00 in 39093 cells on zone 100 
 19980  3.4463e-05  1.1498e-06  1.3587e-06  1.0586e-05  2.3628e-05  1.3845e-05  2.9677e+01  4.0234e+00  4.2801e-05  4.2801e-05  0:00:28   20

 Reversed flow on 1 face (0.1% area) of pressure-outlet 50.

 absolute pressure limited to 1.000000e+00 in 39093 cells on zone 100 
 19981  3.4460e-05  1.1498e-06  1.3587e-06  1.0585e-05  2.3629e-05  1.3844e-05  2.9677e+01  4.0234e+00  4.2801e-05  4.2801e-05  0:00:26   19

 Reversed flow on 1 face (0.1% area) of pressure-outlet 50.

 absolute pressure limited to 1.000000e+00 in 39093 cells on zone 100 
 19982  3.4457e-05  1.1498e-06  1.3586e-06  1.0584e-05  2.3629e-05  1.3843e-05  2.9677e+01  4.0234e+00  4.2801e-05  4.2801e-05  0:00:25   18

 Reversed flow on 1 face (0.1% area) of pressure-outlet 50.

 absolute pressure limited to 1.000000e+00 in 39093 cells on zone 100 
 19983  3.4454e-05  1.1497e-06  1.3586e-06  1.0584e-05  2.3629e-05  1.3842e-05  2.9677e+01  4.0234e+00  4.2801e-05  4.2801e-05  0:00:23   17

 Reversed flow on 1 face (0.1% area) of pressure-outlet 50.

 absolute pressure limited to 1.000000e+00 in 39093 cells on zone 100 
 19984  3.4451e-05  1.1497e-06  1.3585e-06  1.0583e-05  2.3630e-05  1.3840e-05  2.9677e+01  4.0234e+00  4.2800e-05  4.2800e-05  0:00:21   16

 Reversed flow on 1 face (0.1% area) of pressure-outlet 50.

 absolute pressure limited to 1.000000e+00 in 39093 cells on zone 100 
 19985  3.4449e-05  1.1497e-06  1.3585e-06  1.0582e-05  2.3630e-05  1.3839e-05  2.9677e+01  4.0235e+00  4.2800e-05  4.2800e-05  0:00:19   15

 Reversed flow on 1 face (0.1% area) of pressure-outlet 50.
Absolute pressure limited to 1.000000e+00 in 430023 cells during the last 11 iterations

 absolute pressure limited to 1.000000e+00 in 39093 cells on zone 100 

  iter  continuity  x-velocity  y-velocity      energy           k       omega  exit-stati   exit-mach  mass-flow-  mass-flow-     time/iter
 19986  3.4446e-05  1.1496e-06  1.3584e-06  1.0582e-05  2.3630e-05  1.3838e-05  2.9677e+01  4.0235e+00  4.2800e-05  4.2800e-05  0:00:20   14

 Reversed flow on 1 face (0.1% area) of pressure-outlet 50.

 absolute pressure limited to 1.000000e+00 in 39093 cells on zone 100 
 19987  3.4443e-05  1.1496e-06  1.3584e-06  1.0581e-05  2.3630e-05  1.3837e-05  2.9677e+01  4.0235e+00  4.2800e-05  4.2800e-05  0:00:18   13

 Reversed flow on 1 face (0.1% area) of pressure-outlet 50.

 absolute pressure limited to 1.000000e+00 in 39093 cells on zone 100 
 19988  3.4440e-05  1.1496e-06  1.3584e-06  1.0580e-05  2.3631e-05  1.3836e-05  2.9677e+01  4.0235e+00  4.2800e-05  4.2800e-05  0:00:16   12

 Reversed flow on 1 face (0.1% area) of pressure-outlet 50.

 absolute pressure limited to 1.000000e+00 in 39093 cells on zone 100 
 19989  3.4437e-05  1.1495e-06  1.3584e-06  1.0580e-05  2.3631e-05  1.3835e-05  2.9677e+01  4.0235e+00  4.2800e-05  4.2800e-05  0:00:15   11

 Reversed flow on 1 face (0.1% area) of pressure-outlet 50.

 absolute pressure limited to 1.000000e+00 in 39093 cells on zone 100 
 19990  3.4434e-05  1.1495e-06  1.3583e-06  1.0579e-05  2.3631e-05  1.3834e-05  2.9677e+01  4.0235e+00  4.2800e-05  4.2800e-05  0:00:13   10

 Reversed flow on 1 face (0.1% area) of pressure-outlet 50.

 absolute pressure limited to 1.000000e+00 in 39093 cells on zone 100 
 19991  3.4431e-05  1.1495e-06  1.3583e-06  1.0579e-05  2.3632e-05  1.3833e-05  2.9677e+01  4.0235e+00  4.2800e-05  4.2800e-05  0:00:12    9

 Reversed flow on 1 face (0.1% area) of pressure-outlet 50.

 absolute pressure limited to 1.000000e+00 in 39092 cells on zone 100 
 19992  3.4428e-05  1.1494e-06  1.3582e-06  1.0578e-05  2.3632e-05  1.3832e-05  2.9677e+01  4.0235e+00  4.2800e-05  4.2800e-05  0:00:11    8

 Reversed flow on 1 face (0.1% area) of pressure-outlet 50.

 absolute pressure limited to 1.000000e+00 in 39092 cells on zone 100 
 19993  3.4425e-05  1.1494e-06  1.3582e-06  1.0577e-05  2.3632e-05  1.3831e-05  2.9677e+01  4.0235e+00  4.2800e-05  4.2800e-05  0:00:09    7

 Reversed flow on 1 face (0.1% area) of pressure-outlet 50.

 absolute pressure limited to 1.000000e+00 in 39092 cells on zone 100 
 19994  3.4423e-05  1.1494e-06  1.3581e-06  1.0577e-05  2.3633e-05  1.3830e-05  2.9677e+01  4.0235e+00  4.2800e-05  4.2800e-05  0:00:08    6

 Reversed flow on 1 face (0.1% area) of pressure-outlet 50.

 absolute pressure limited to 1.000000e+00 in 39092 cells on zone 100 
 19995  3.4420e-05  1.1493e-06  1.3581e-06  1.0576e-05  2.3633e-05  1.3829e-05  2.9677e+01  4.0235e+00  4.2800e-05  4.2800e-05  0:00:06    5

 Reversed flow on 1 face (0.1% area) of pressure-outlet 50.

 absolute pressure limited to 1.000000e+00 in 39092 cells on zone 100 
 19996  3.4417e-05  1.1493e-06  1.3581e-06  1.0575e-05  2.3633e-05  1.3828e-05  2.9677e+01  4.0235e+00  4.2800e-05  4.2800e-05  0:00:05    4

 Reversed flow on 1 face (0.1% area) of pressure-outlet 50.
Absolute pressure limited to 1.000000e+00 in 430018 cells during the last 11 iterations

 absolute pressure limited to 1.000000e+00 in 39091 cells on zone 100 

  iter  continuity  x-velocity  y-velocity      energy           k       omega  exit-stati   exit-mach  mass-flow-  mass-flow-     time/iter
 19997  3.4414e-05  1.1492e-06  1.3580e-06  1.0575e-05  2.3634e-05  1.3827e-05  2.9676e+01  4.0235e+00  4.2800e-05  4.2800e-05  0:00:04    3

 Reversed flow on 1 face (0.1% area) of pressure-outlet 50.

 absolute pressure limited to 1.000000e+00 in 39091 cells on zone 100 
 19998  3.4411e-05  1.1492e-06  1.3580e-06  1.0574e-05  2.3634e-05  1.3825e-05  2.9676e+01  4.0235e+00  4.2800e-05  4.2800e-05  0:00:03    2

 Reversed flow on 1 face (0.1% area) of pressure-outlet 50.

 absolute pressure limited to 1.000000e+00 in 39091 cells on zone 100 
 19999  3.4408e-05  1.1492e-06  1.3579e-06  1.0573e-05  2.3634e-05  1.3824e-05  2.9676e+01  4.0235e+00  4.2800e-05  4.2800e-05  0:00:01    1

 Reversed flow on 1 face (0.1% area) of pressure-outlet 50.

 absolute pressure limited to 1.000000e+00 in 39091 cells on zone 100 
 20000  3.4405e-05  1.1491e-06  1.3579e-06  1.0573e-05  2.3635e-05  1.3823e-05  2.9676e+01  4.0235e+00  4.2800e-05  4.2800e-05  0:00:00    0

Calculation complete.
(cx-gui-do cx-activate-item "Information*OK")
(cx-gui-do cx-activate-item "MenuBar*WriteSubMenu*Case & Data...")
(cx-gui-do cx-activate-item "MenuBar*WriteSubMenu*Case & Data...")
(cx-gui-do cx-set-file-dialog-entries "Select File" '( "2DNozzle_2_20000.cas.h5") "CFF Case/Data Files (*.cas.h5 *.dat.h5 )")

Writing to SimonAsusLaptop:"C:/Users/Simon/Projects/MEng Electronics/Development of a Resistojet Thruster/2) Simulations/CFD/2D Nozzle Simulation/2DNozzle_2_20000.cas.h5" in NODE0 mode and compression level 1 ...
Grouping cells for Laplace smoothing ...
      234568 cells,     2 zones ...
      470119 faces,    10 zones ...
      235552 nodes,     1 zone  ...
  Done.
Done.

Additional data file quantities are not supported when writing in the default CFF format (.dat.h5 files).


Writing to SimonAsusLaptop:"C:/Users/Simon/Projects/MEng Electronics/Development of a Resistojet Thruster/2) Simulations/CFD/2D Nozzle Simulation/2DNozzle_2_20000.dat.h5" in NODE0 mode and compression level 1 ...
  Writing results.
Done.
(cx-gui-do cx-activate-item "Information*OK")
(cx-gui-do cx-set-list-tree-selections "NavigationPane*Frame2*Table1*List_Tree2" (list "Solution|Report Definitions|mass-flow-rate_outlet"))
(cx-gui-do cx-set-list-tree-selections "NavigationPane*Frame2*Table1*List_Tree2" (list "Solution|Report Definitions|mass-flow-rate_outlet"))
(cx-gui-do cx-activate-item "NavigationPane*Frame2*Table1*List_Tree2")
(cx-gui-do cx-set-list-tree-selections "NavigationPane*Frame2*Table1*List_Tree2" (list "Solution|Report Definitions|mass-flow-rate_outlet"))
(cx-gui-do cx-activate-item "Surface Report Definition*PanelButtons*PushButton4(Compute)")

                  Mass Flow Rate              [kg/s]
-------------------------------- -------------------
                          outlet       4.2799548e-05
(cx-gui-do cx-activate-item "Surface Report Definition*PanelButtons*PushButton2(Cancel)")
(cx-gui-do cx-set-list-tree-selections "NavigationPane*Frame2*Table1*List_Tree2" (list "Solution|Report Definitions|out-thrust"))
(cx-gui-do cx-set-list-tree-selections "NavigationPane*Frame2*Table1*List_Tree2" (list "Solution|Report Definitions|out-thrust"))
(cx-gui-do cx-set-list-tree-selections "NavigationPane*Frame2*Table1*List_Tree2" (list "Solution|Report Definitions|out-thrust"))
(cx-gui-do cx-set-list-tree-selections "NavigationPane*Frame2*Table1*List_Tree2" (list "Solution|Report Definitions|out-thrust"))
(cx-gui-do cx-activate-item "NavigationPane*Frame2*Table1*List_Tree2")
(cx-gui-do cx-set-list-tree-selections "NavigationPane*Frame2*Table1*List_Tree2" (list "Solution|Report Definitions|out-thrust"))
(cx-gui-do cx-set-expression-entry "Expression Report Definition*Table1*ExpressionEntry2" '("mass_flow_rate_outlet  * exit_velocity + outlet_area * (exit_static_pressure-1[Pa])" . 1))
(cx-gui-do cx-set-expression-entry "Expression Report Definition*Table1*ExpressionEntry2" '("mass_flow_rate_outlet  * exit_velocity + outlet_area * (exit_static_pressure-1[Pa])" . 1))
(cx-gui-do cx-set-expression-entry "Expression Report Definition*Table1*ExpressionEntry2" '("mass_flow_rate_outlet  * exit_velocity + outlet_area * (exit_static_pressure-1[Pa])" . 1))
(cx-gui-do cx-set-expression-entry "Expression Report Definition*Table1*ExpressionEntry2" '("mass_flow_rate_outlet  * exit_velocity + outlet_area * (exit_static_pressure-1[Pa])" . 1))
(cx-gui-do cx-activate-item "Expression Report Definition*PanelButtons*PushButton4(Compute)")
                      Expression          [kg/s m/s]
-------------------------------- -------------------
                      out-thrust         0.031605371
(cx-gui-do cx-activate-item "Expression Report Definition*PanelButtons*PushButton2(Cancel)")
(cx-gui-do cx-set-list-tree-selections "NavigationPane*Frame2*Table1*List_Tree2" (list "Solution|Report Definitions|out-isp"))
(cx-gui-do cx-set-list-tree-selections "NavigationPane*Frame2*Table1*List_Tree2" (list "Solution|Report Definitions|out-isp"))
(cx-gui-do cx-set-list-tree-selections "NavigationPane*Frame2*Table1*List_Tree2" (list "Solution|Report Definitions|out-isp"))
(cx-gui-do cx-set-list-tree-selections "NavigationPane*Frame2*Table1*List_Tree2" (list "Solution|Report Definitions|out-isp"))
(cx-gui-do cx-activate-item "NavigationPane*Frame2*Table1*List_Tree2")
(cx-gui-do cx-activate-item "Expression Report Definition*PanelButtons*PushButton4(Compute)")
                      Expression                 [s]
-------------------------------- -------------------
                         out-isp           75.301051
(cx-gui-do cx-activate-item "Expression Report Definition*PanelButtons*PushButton2(Cancel)")
(cx-gui-do cx-set-list-tree-selections "NavigationPane*Frame2*Table1*List_Tree2" (list "Solution|Report Definitions|exit-static-temperature"))
(cx-gui-do cx-set-list-tree-selections "NavigationPane*Frame2*Table1*List_Tree2" (list "Solution|Report Definitions|exit-static-temperature"))
(cx-gui-do cx-activate-item "NavigationPane*Frame2*Table1*List_Tree2")
(cx-gui-do cx-set-list-tree-selections "NavigationPane*Frame2*Table1*List_Tree2" (list "Solution|Report Definitions|exit-static-temperature"))
(cx-gui-do cx-activate-item "Surface Report Definition*PanelButtons*PushButton4(Compute)")

           Mass-Weighted Average                 [K]
-------------------------------- -------------------
                          outlet           361.15002
(cx-gui-do cx-activate-item "Surface Report Definition*PanelButtons*PushButton2(Cancel)")
(cx-gui-do cx-set-list-tree-selections "NavigationPane*Frame2*Table1*List_Tree2" (list "Solution|Report Definitions|exit-static-pressure"))
(cx-gui-do cx-set-list-tree-selections "NavigationPane*Frame2*Table1*List_Tree2" (list "Solution|Report Definitions|exit-static-pressure"))
(cx-gui-do cx-set-list-tree-selections "NavigationPane*Frame2*Table1*List_Tree2" (list "Solution|Report Definitions|exit-static-pressure"))
(cx-gui-do cx-activate-item "NavigationPane*Frame2*Table1*List_Tree2")
(cx-gui-do cx-set-list-tree-selections "NavigationPane*Frame2*Table1*List_Tree2" (list "Solution|Report Definitions|exit-static-pressure"))
(cx-gui-do cx-set-list-tree-selections "NavigationPane*Frame2*Table1*List_Tree2" (list "Solution|Report Definitions|exit-static-pressure"))
(cx-gui-do cx-activate-item "Surface Report Definition*PanelButtons*PushButton4(Compute)")

           Area-Weighted Average                [Pa]
-------------------------------- -------------------
                          outlet           29.676341
(cx-gui-do cx-activate-item "Surface Report Definition*PanelButtons*PushButton2(Cancel)")
(cx-gui-do cx-set-list-tree-selections "NavigationPane*Frame2*Table1*List_Tree2" (list "Solution|Report Definitions|exit-velocity"))
(cx-gui-do cx-set-list-tree-selections "NavigationPane*Frame2*Table1*List_Tree2" (list "Solution|Report Definitions|exit-velocity"))
(cx-gui-do cx-activate-item "NavigationPane*Frame2*Table1*List_Tree2")
(cx-gui-do cx-activate-item "Surface Report Definition*PanelButtons*PushButton4(Compute)")

           Mass-Weighted Average               [m/s]
-------------------------------- -------------------
                          outlet           685.82819
(cx-gui-do cx-activate-item "Surface Report Definition*PanelButtons*PushButton1(OK)")
(cx-gui-do cx-set-list-tree-selections "NavigationPane*Frame2*Table1*List_Tree2" (list "Solution|Report Definitions|inlet-velocity"))
(cx-gui-do cx-set-list-tree-selections "NavigationPane*Frame2*Table1*List_Tree2" (list "Solution|Report Definitions|inlet-velocity"))
(cx-gui-do cx-activate-item "NavigationPane*Frame2*Table1*List_Tree2")
(cx-gui-do cx-set-list-tree-selections "NavigationPane*Frame2*Table1*List_Tree2" (list "Solution|Report Definitions|inlet-velocity"))
(cx-gui-do cx-activate-item "Surface Report Definition*PanelButtons*PushButton2(Cancel)")
(cx-gui-do cx-set-list-tree-selections "NavigationPane*Frame2*Table1*List_Tree2" (list "Solution|Report Definitions|exit-mach"))
(cx-gui-do cx-set-list-tree-selections "NavigationPane*Frame2*Table1*List_Tree2" (list "Solution|Report Definitions|exit-mach"))
(cx-gui-do cx-set-list-tree-selections "NavigationPane*Frame2*Table1*List_Tree2" (list "Solution|Report Definitions|exit-mach"))
(cx-gui-do cx-activate-item "NavigationPane*Frame2*Table1*List_Tree2")
(cx-gui-do cx-set-list-tree-selections "NavigationPane*Frame2*Table1*List_Tree2" (list "Solution|Report Definitions|exit-mach"))
(cx-gui-do cx-activate-item "Surface Report Definition*PanelButtons*PushButton4(Compute)")

           Mass-Weighted Average                    
-------------------------------- -------------------
                          outlet           4.0235007
(cx-gui-do cx-activate-item "Surface Report Definition*PanelButtons*PushButton2(Cancel)")
(cx-gui-do cx-set-list-tree-selections "NavigationPane*Frame2*Table1*List_Tree2" (list "Solution|Report Definitions|out-total-outlet-enthalpy"))
(cx-gui-do cx-set-list-tree-selections "NavigationPane*Frame2*Table1*List_Tree2" (list "Solution|Report Definitions|out-total-enthalpy-retention"))
(cx-gui-do cx-set-list-tree-selections "NavigationPane*Frame2*Table1*List_Tree2" (list "Solution|Report Definitions|out-total-enthalpy-retention"))
(cx-gui-do cx-activate-item "NavigationPane*Frame2*Table1*List_Tree2")
(cx-gui-do cx-set-list-tree-selections "NavigationPane*Frame2*Table1*List_Tree2" (list "Solution|Report Definitions|out-total-enthalpy-retention"))
(cx-gui-do cx-activate-item "Expression Report Definition*PanelButtons*PushButton4(Compute)")
                      Expression                  []
-------------------------------- -------------------
    out-total-enthalpy-retention          0.97989205
(cx-gui-do cx-activate-item "Expression Report Definition*PanelButtons*PushButton2(Cancel)")
/exit y

Posting ANSYS Product Improvement Program performance data 
Done.
Auto-Transcript Stop Time:  13:55:33, 18 Jul 2026 South Africa Standard Time 
Total Transcript Time: 3 Hour 0 Minute 4 Second.
