Auto-Transcript Start Time:  09:58:33, 17 Jul 2026 South Africa Standard Time 
Current Directory: "C:\Users\Simon\Projects\MEng Electronics\Development of a Resistojet Thruster\2) Simulations\CFD"

              Welcome to ANSYS Fluent 2026 R1

              Copyright 2026 Synopsys, Inc. and ANSYS, Inc. All rights reserved.
              Unauthorized use, distribution or duplication is prohibited.
              This product is subject to U.S. laws governing export and re-export.
              For full Legal Notice, see documentation.

Build Time: Feb  2 2026 16:27:16 EST  Build Id: 10262  
 
Connected License Server List:	<Non FlexNet Publisher License Server (FNPLS)>

     --------------------------------------------------------------
     This is a student version of ANSYS FLUENT. Usage of this product
     license is limited to the terms and conditions specified in your ANSYS
     license form, additional terms section.
     --------------------------------------------------------------
Host spawning Node 0 on machine "SimonAsusLaptop" (win64).
Host waiting for connection from Node 0 at 127.0.0.1:62600 

Node 0 connecting to the Host ... connection established.

------------------------------------------------------------------------------------------
ID    Hostname         Core  O.S.         PID    CPU Model Name                          
------------------------------------------------------------------------------------------
n3    SimonAsusLaptop  4/20  Windows-x64  27328  12th Gen Intel(R) Core(TM) i7-12700H    
n2    SimonAsusLaptop  3/20  Windows-x64  26516  12th Gen Intel(R) Core(TM) i7-12700H    
n1    SimonAsusLaptop  2/20  Windows-x64  25564  12th Gen Intel(R) Core(TM) i7-12700H    
n0*   SimonAsusLaptop  1/20  Windows-x64  27848  12th Gen Intel(R) Core(TM) i7-12700H    
host  SimonAsusLaptop        Windows-x64  36744  12th Gen Intel(R) Core(TM) i7-12700H    

MPI Option Selected: intel
Selected system interconnect: default
------------------------------------------------------------------------------------------

Cleanup script file is C:\\Users\\Simon\\Projects\\MEng Electronics\\Development of a Resistojet Thruster\\2) Simulations\\CFD\\cleanup-fluent-SimonAsusLaptop-36744.bat
Note: Rank = 0: Process affinity not being set (6).
Note: Rank = 1: Process affinity not being set (6).
Note: Rank = 2: Process affinity not being set (6).
Note: Rank = 3: Process affinity not being set (6).

Graphics driver currently in use: dx11


Posting ANSYS Product Improvement Program startup data
Done.

> (cx-gui-do cx-activate-item "MenuBar*ReadSubMenu*Case...")
(cx-gui-do cx-set-file-dialog-entries "Select File" '( "C:/Users/Simon/Projects/MEng Electronics/Development of a Resistojet Thruster/2) Simulations/CFD/2D Nozzle Simulation/2DNozzle_axial_2d.cas.h5") "CFF Case Files (*.cas.h5 *.msh.h5 *.MSH.h5 )")
Fast-loading "C:\PROGRA~1\ANSYSI~1\ANSYSS~1\v261\fluent\fluent26.1.0\\addons\afd\lib\hdfio.bin"
Done.

Reading from SimonAsusLaptop:"C:/Users/Simon/Projects/MEng Electronics/Development of a Resistojet Thruster/2) Simulations/CFD/2D Nozzle Simulation/2DNozzle_axial_2d.cas.h5" in NODE0 mode ...
  Reading mesh ...
      234568 cells,     2 cell zones ...
         187566 mixed cells,  zone id: 94
          47002 mixed cells,  zone id: 100
      470119 faces,    10 face zones ...
            400 2D axis faces,  zone id: 1
             63 2D pressure-inlet faces,  zone id: 41
             62 2D interior faces,  zone id: 43
           3775 2D wall faces,  zone id: 44
           2149 2D wall faces,  zone id: 46
            431 2D axis faces,  zone id: 47
            641 2D pressure-outlet faces,  zone id: 50
            144 2D wall faces,  zone id: 52
         369151 2D interior faces,  zone id: 501
          93303 2D interior faces,  zone id: 502
      235552 nodes,     1 node zone  ...
  Done.


Building...
     mesh
	distributing mesh
		parts....,
		faces....,
		nodes....,
		cells....,
        bandwidth reduction using Reverse Cuthill-McKee: 59174/950 = 62.2884
     materials,
     interface,
     domains,
	mixture
     zones,
	axis-1
	interior:fluid
	interior:vacuum
	inlet
	outlet
	divergingside
	convergingside
	axis
	vacuumboundaries
	outsidewall
	fluid
	vacuum
     parallel,
Done.
(cx-gui-do cx-set-list-tree-selections "NavigationPane*Frame2*Table1*List_Tree2" (list "Setup|Materials|Fluid|air"))
(cx-gui-do cx-set-list-tree-selections "NavigationPane*Frame2*Table1*List_Tree2" (list "Setup|Materials|Fluid|air"))
(cx-gui-do cx-activate-item "NavigationPane*Frame2*Table1*List_Tree2")
(cx-gui-do cx-activate-item "Create/Edit Materials*Table1*Frame1*Frame2*ButtonBox2*PushButton3(User-Defined Database)")
(cx-gui-do cx-activate-item "Open Database*PushButton2(Browse)")
(cx-gui-do cx-set-file-dialog-entries "Select File" '( "C:/Users/Simon/Projects/MEng Electronics/Development of a Resistojet Thruster/2) Simulations/CFD/R134a_approximation.scm") "Database Files (*.scm)")
(cx-gui-do cx-activate-item "Open Database*PanelButtons*PushButton1(OK)")

Reading materials database file 'R134a_approximation.scm' from directory:
"C:\Users\Simon\Projects\MEng Electronics\Development of a Resistojet Thruster\2) Simulations\CFD"

(cx-gui-do cx-set-list-selections "User-Defined Database Materials*Table1*Frame1*List1(Materials)" '( 0))
(cx-gui-do cx-activate-item "User-Defined Database Materials*Table1*Frame1*List1(Materials)")
(cx-gui-do cx-activate-item "User-Defined Database Materials*PanelButtons*PushButton6(Copy)")
(cx-gui-do cx-activate-item "User-Defined Database Materials*PanelButtons*PushButton1(Close)")
(cx-gui-do cx-set-list-selections "Create/Edit Materials*Table1*Frame1*Table1*DropDownList4(Materials)" '( 1))
(cx-gui-do cx-activate-item "Create/Edit Materials*Table1*Frame1*Table1*DropDownList4(Materials)")
(cx-gui-do cx-activate-item "Create/Edit Materials*PanelButtons*PushButton3(Change/Create)")
(cx-gui-do cx-activate-item "Create/Edit Materials*PanelButtons*PushButton1(Close)")
(cx-gui-do cx-set-list-tree-selections "NavigationPane*Frame2*Table1*List_Tree2" (list ))
(cx-gui-do cx-set-list-tree-selections "NavigationPane*Frame2*Table1*List_Tree2" (list "Setup|Boundary Conditions|Axis|axis (axis, id=47)"))
(cx-gui-do cx-set-list-tree-selections "NavigationPane*Frame2*Table1*List_Tree2" (list "Setup|Boundary Conditions|Axis|axis (axis, id=47)"))
(cx-gui-do cx-activate-item "NavigationPane*Frame2*Table1*List_Tree2")
(cx-gui-do cx-activate-item "Axis*PanelButtons*PushButton2(Cancel)")
(cx-gui-do cx-set-list-tree-selections "NavigationPane*Frame2*Table1*List_Tree2" (list "Setup|Boundary Conditions|Inlet|inlet (pressure-inlet, id=41)"))
(cx-gui-do cx-set-list-tree-selections "NavigationPane*Frame2*Table1*List_Tree2" (list "Setup|Boundary Conditions|Inlet|inlet (pressure-inlet, id=41)"))
(cx-gui-do cx-activate-item "NavigationPane*Frame2*Table1*List_Tree2")
(cx-gui-do cx-set-list-tree-selections "NavigationPane*Frame2*Table1*List_Tree2" (list "Setup|Boundary Conditions|Inlet|inlet (pressure-inlet, id=41)"))
(cx-gui-do cx-activate-tab-index "Pressure Inlet*Frame2*Frame2" 0)
(cx-gui-do cx-activate-tab-index "Pressure Inlet*Frame2*Frame2" 1)
(cx-gui-do cx-activate-tab-index "Pressure Inlet*Frame2*Frame2" 0)
(cx-gui-do cx-activate-tab-index "Pressure Inlet*Frame2*Frame2" 2)
(cx-gui-do cx-activate-tab-index "Pressure Inlet*Frame2*Frame2" 0)
(cx-gui-do cx-activate-tab-index "Pressure Inlet*Frame2*Frame2" 3)
(cx-gui-do cx-activate-tab-index "Pressure Inlet*Frame2*Frame2" 0)
(cx-gui-do cx-activate-tab-index "Pressure Inlet*Frame2*Frame2" 4)
(cx-gui-do cx-activate-tab-index "Pressure Inlet*Frame2*Frame2" 0)
(cx-gui-do cx-activate-tab-index "Pressure Inlet*Frame2*Frame2" 5)
(cx-gui-do cx-activate-tab-index "Pressure Inlet*Frame2*Frame2" 0)
(cx-gui-do cx-activate-tab-index "Pressure Inlet*Frame2*Frame2" 6)
(cx-gui-do cx-activate-tab-index "Pressure Inlet*Frame2*Frame2" 0)
(cx-gui-do cx-activate-tab-index "Pressure Inlet*Frame2*Frame2" 7)
(cx-gui-do cx-activate-tab-index "Pressure Inlet*Frame2*Frame2" 0)
(cx-gui-do cx-activate-tab-index "Pressure Inlet*Frame2*Frame2" 8)
(cx-gui-do cx-activate-tab-index "Pressure Inlet*Frame2*Frame2" 0)
(cx-gui-do cx-enable-apply-button "Pressure Inlet")
(cx-gui-do cx-set-expression-entry "Pressure Inlet*Frame2*Frame2*Frame1(Momentum)*Table1*Table7*ExpressionEntry1(Gauge Total Pressure)" '("500000" . 0))
(cx-gui-do cx-set-expression-entry "Pressure Inlet*Frame2*Frame2*Frame1(Momentum)*Table1*Table7*ExpressionEntry1(Gauge Total Pressure)" '("500000" . 0))
(cx-gui-do cx-set-expression-entry "Pressure Inlet*Frame2*Frame2*Frame1(Momentum)*Table1*Table8*ExpressionEntry1(Supersonic/Initial Gauge Pressure)" '("500000" . 0))
(cx-gui-do cx-activate-tab-index "Pressure Inlet*Frame2*Frame2" 1)
(cx-gui-do cx-set-expression-entry "Pressure Inlet*Frame2*Frame2*Frame2(Thermal)*Table1*Table1*ExpressionEntry1(Total Temperature)" '("600" . 0))
(cx-gui-do cx-activate-item "Pressure Inlet*PanelButtons*PushButton1(OK)")
(cx-gui-do cx-activate-tab-index "Pressure Inlet*Frame2*Frame2" 0)
(cx-gui-do cx-activate-item "Pressure Inlet*PanelButtons*PushButton1(OK)")
(cx-gui-do cx-activate-item "Pressure Inlet*PanelButtons*PushButton2(Cancel)")
(cx-gui-do cx-set-list-tree-selections "NavigationPane*Frame2*Table1*List_Tree2" (list "Setup|Boundary Conditions|Internal|outlet (interior, id=43)"))
(cx-gui-do cx-set-list-tree-selections "NavigationPane*Frame2*Table1*List_Tree2" (list "Setup|Boundary Conditions|Internal|outlet (interior, id=43)"))
(cx-gui-do cx-activate-item "NavigationPane*Frame2*Table1*List_Tree2")
(cx-gui-do cx-set-list-tree-selections "NavigationPane*Frame2*Table1*List_Tree2" (list "Setup|Boundary Conditions|Internal|outlet (interior, id=43)"))
(cx-gui-do cx-activate-item "Interior*PanelButtons*PushButton2(Cancel)")
(cx-gui-do cx-set-list-tree-selections "NavigationPane*Frame2*Table1*List_Tree2" (list "Setup|Boundary Conditions|Outlet|vacuumboundaries (pressure-outlet, id=50)"))
(cx-gui-do cx-set-list-tree-selections "NavigationPane*Frame2*Table1*List_Tree2" (list "Setup|Boundary Conditions|Outlet|vacuumboundaries (pressure-outlet, id=50)"))
(cx-gui-do cx-activate-item "NavigationPane*Frame2*Table1*List_Tree2")
(cx-gui-do cx-set-list-tree-selections "NavigationPane*Frame2*Table1*List_Tree2" (list "Setup|Boundary Conditions|Outlet|vacuumboundaries (pressure-outlet, id=50)"))
(cx-gui-do cx-activate-tab-index "Pressure Outlet*Frame2*Frame2" 0)
(cx-gui-do cx-activate-tab-index "Pressure Outlet*Frame2*Frame2" 1)
(cx-gui-do cx-activate-tab-index "Pressure Outlet*Frame2*Frame2" 0)
(cx-gui-do cx-activate-tab-index "Pressure Outlet*Frame2*Frame2" 2)
(cx-gui-do cx-activate-tab-index "Pressure Outlet*Frame2*Frame2" 0)
(cx-gui-do cx-activate-tab-index "Pressure Outlet*Frame2*Frame2" 3)
(cx-gui-do cx-activate-tab-index "Pressure Outlet*Frame2*Frame2" 0)
(cx-gui-do cx-activate-tab-index "Pressure Outlet*Frame2*Frame2" 4)
(cx-gui-do cx-activate-tab-index "Pressure Outlet*Frame2*Frame2" 0)
(cx-gui-do cx-activate-tab-index "Pressure Outlet*Frame2*Frame2" 5)
(cx-gui-do cx-activate-tab-index "Pressure Outlet*Frame2*Frame2" 0)
(cx-gui-do cx-activate-tab-index "Pressure Outlet*Frame2*Frame2" 6)
(cx-gui-do cx-activate-tab-index "Pressure Outlet*Frame2*Frame2" 0)
(cx-gui-do cx-activate-tab-index "Pressure Outlet*Frame2*Frame2" 7)
(cx-gui-do cx-activate-tab-index "Pressure Outlet*Frame2*Frame2" 0)
(cx-gui-do cx-activate-tab-index "Pressure Outlet*Frame2*Frame2" 8)
(cx-gui-do cx-activate-tab-index "Pressure Outlet*Frame2*Frame2" 0)
(cx-gui-do cx-activate-item "Pressure Outlet*PanelButtons*PushButton2(Cancel)")
(cx-gui-do cx-set-list-tree-selections "NavigationPane*Frame2*Table1*List_Tree2" (list "Setup|Boundary Conditions|Wall|convergingside (wall, id=46)"))
(cx-gui-do cx-set-list-tree-selections "NavigationPane*Frame2*Table1*List_Tree2" (list "Setup|Boundary Conditions|Wall|convergingside (wall, id=46)"))
(cx-gui-do cx-activate-item "NavigationPane*Frame2*Table1*List_Tree2")
(cx-gui-do cx-set-list-tree-selections "NavigationPane*Frame2*Table1*List_Tree2" (list "Setup|Boundary Conditions|Wall|convergingside (wall, id=46)"))
(cx-gui-do cx-activate-tab-index "Wall*Frame4" 0)
(cx-gui-do cx-activate-tab-index "Wall*Frame4" 1)
(cx-gui-do cx-activate-tab-index "Wall*Frame4" 0)
(cx-gui-do cx-activate-tab-index "Wall*Frame4" 2)
(cx-gui-do cx-activate-tab-index "Wall*Frame4" 0)
(cx-gui-do cx-activate-tab-index "Wall*Frame4" 3)
(cx-gui-do cx-activate-tab-index "Wall*Frame4" 0)
(cx-gui-do cx-activate-tab-index "Wall*Frame4" 4)
(cx-gui-do cx-activate-tab-index "Wall*Frame4" 0)
(cx-gui-do cx-activate-tab-index "Wall*Frame4" 5)
(cx-gui-do cx-activate-tab-index "Wall*Frame4" 0)
(cx-gui-do cx-activate-tab-index "Wall*Frame4" 6)
(cx-gui-do cx-activate-tab-index "Wall*Frame4" 0)
(cx-gui-do cx-activate-tab-index "Wall*Frame4" 7)
(cx-gui-do cx-activate-tab-index "Wall*Frame4" 0)
(cx-gui-do cx-activate-tab-index "Wall*Frame4" 8)
(cx-gui-do cx-activate-tab-index "Wall*Frame4" 0)
(cx-gui-do cx-activate-tab-index "Wall*Frame4" 9)
(cx-gui-do cx-activate-tab-index "Wall*Frame4" 0)
(cx-gui-do cx-activate-tab-index "Wall*Frame4" 10)
(cx-gui-do cx-activate-tab-index "Wall*Frame4" 0)
(cx-gui-do cx-activate-tab-index "Wall*Frame4*Frame8(Wall Film)*Frame1*Frame2" 0)
(cx-gui-do cx-activate-tab-index "Wall*Frame4*Frame8(Wall Film)*Frame1*Frame2" 1)
(cx-gui-do cx-activate-tab-index "Wall*Frame4*Frame8(Wall Film)*Frame1*Frame2" 0)
(cx-gui-do cx-activate-tab-index "Wall*Frame4*Frame8(Wall Film)*Frame1*Frame2" 2)
(cx-gui-do cx-activate-tab-index "Wall*Frame4*Frame8(Wall Film)*Frame1*Frame2" 0)
(cx-gui-do cx-activate-tab-index "Wall*Frame4*Frame8(Wall Film)*Frame1*Frame2" 3)
(cx-gui-do cx-activate-tab-index "Wall*Frame4*Frame8(Wall Film)*Frame1*Frame2" 0)
(cx-gui-do cx-activate-tab-index "Wall*Frame4*Frame8(Wall Film)*Frame1*Frame2" 4)
(cx-gui-do cx-activate-tab-index "Wall*Frame4*Frame8(Wall Film)*Frame1*Frame2" 0)
(cx-gui-do cx-activate-tab-index "Wall*Frame4*Frame8(Wall Film)*Frame1*Frame2" 5)
(cx-gui-do cx-activate-tab-index "Wall*Frame4*Frame8(Wall Film)*Frame1*Frame2" 0)
(cx-gui-do cx-activate-tab-index "Wall*Frame4*Frame8(Wall Film)*Frame1*Frame2" 6)
(cx-gui-do cx-activate-tab-index "Wall*Frame4*Frame8(Wall Film)*Frame1*Frame2" 0)
(cx-gui-do cx-activate-item "Wall*PanelButtons*PushButton2(Cancel)")
(cx-gui-do cx-set-list-tree-selections "NavigationPane*Frame2*Table1*List_Tree2" (list "Setup|Boundary Conditions|Wall|divergingside (wall, id=44)"))
(cx-gui-do cx-set-list-tree-selections "NavigationPane*Frame2*Table1*List_Tree2" (list "Setup|Boundary Conditions|Wall|divergingside (wall, id=44)"))
(cx-gui-do cx-activate-item "NavigationPane*Frame2*Table1*List_Tree2")
(cx-gui-do cx-set-list-tree-selections "NavigationPane*Frame2*Table1*List_Tree2" (list "Setup|Boundary Conditions|Wall|divergingside (wall, id=44)"))
(cx-gui-do cx-activate-tab-index "Wall*Frame4" 0)
(cx-gui-do cx-activate-tab-index "Wall*Frame4" 1)
(cx-gui-do cx-activate-tab-index "Wall*Frame4" 0)
(cx-gui-do cx-activate-tab-index "Wall*Frame4" 2)
(cx-gui-do cx-activate-tab-index "Wall*Frame4" 0)
(cx-gui-do cx-activate-tab-index "Wall*Frame4" 3)
(cx-gui-do cx-activate-tab-index "Wall*Frame4" 0)
(cx-gui-do cx-activate-tab-index "Wall*Frame4" 4)
(cx-gui-do cx-activate-tab-index "Wall*Frame4" 0)
(cx-gui-do cx-activate-tab-index "Wall*Frame4" 5)
(cx-gui-do cx-activate-tab-index "Wall*Frame4" 0)
(cx-gui-do cx-activate-tab-index "Wall*Frame4" 6)
(cx-gui-do cx-activate-tab-index "Wall*Frame4" 0)
(cx-gui-do cx-activate-tab-index "Wall*Frame4" 7)
(cx-gui-do cx-activate-tab-index "Wall*Frame4" 0)
(cx-gui-do cx-activate-tab-index "Wall*Frame4" 8)
(cx-gui-do cx-activate-tab-index "Wall*Frame4" 0)
(cx-gui-do cx-activate-tab-index "Wall*Frame4" 9)
(cx-gui-do cx-activate-tab-index "Wall*Frame4" 0)
(cx-gui-do cx-activate-tab-index "Wall*Frame4" 10)
(cx-gui-do cx-activate-tab-index "Wall*Frame4" 0)
(cx-gui-do cx-activate-tab-index "Wall*Frame4*Frame8(Wall Film)*Frame1*Frame2" 0)
(cx-gui-do cx-activate-tab-index "Wall*Frame4*Frame8(Wall Film)*Frame1*Frame2" 1)
(cx-gui-do cx-activate-tab-index "Wall*Frame4*Frame8(Wall Film)*Frame1*Frame2" 0)
(cx-gui-do cx-activate-tab-index "Wall*Frame4*Frame8(Wall Film)*Frame1*Frame2" 2)
(cx-gui-do cx-activate-tab-index "Wall*Frame4*Frame8(Wall Film)*Frame1*Frame2" 0)
(cx-gui-do cx-activate-tab-index "Wall*Frame4*Frame8(Wall Film)*Frame1*Frame2" 3)
(cx-gui-do cx-activate-tab-index "Wall*Frame4*Frame8(Wall Film)*Frame1*Frame2" 0)
(cx-gui-do cx-activate-tab-index "Wall*Frame4*Frame8(Wall Film)*Frame1*Frame2" 4)
(cx-gui-do cx-activate-tab-index "Wall*Frame4*Frame8(Wall Film)*Frame1*Frame2" 0)
(cx-gui-do cx-activate-tab-index "Wall*Frame4*Frame8(Wall Film)*Frame1*Frame2" 5)
(cx-gui-do cx-activate-tab-index "Wall*Frame4*Frame8(Wall Film)*Frame1*Frame2" 0)
(cx-gui-do cx-activate-tab-index "Wall*Frame4*Frame8(Wall Film)*Frame1*Frame2" 6)
(cx-gui-do cx-activate-tab-index "Wall*Frame4*Frame8(Wall Film)*Frame1*Frame2" 0)
(cx-gui-do cx-set-list-tree-selections "NavigationPane*Frame2*Table1*List_Tree2" (list "Setup|Boundary Conditions|Wall|outsidewall (wall, id=52)"))
(cx-gui-do cx-set-list-tree-selections "NavigationPane*Frame2*Table1*List_Tree2" (list "Setup|Boundary Conditions|Wall|outsidewall (wall, id=52)"))
(cx-gui-do cx-activate-item "NavigationPane*Frame2*Table1*List_Tree2")
(cx-gui-do cx-set-list-tree-selections "NavigationPane*Frame2*Table1*List_Tree2" (list "Setup|Boundary Conditions|Wall|outsidewall (wall, id=52)"))
(cx-gui-do cx-activate-tab-index "Wall*Frame4" 0)
(cx-gui-do cx-activate-tab-index "Wall*Frame4" 1)
(cx-gui-do cx-activate-tab-index "Wall*Frame4" 0)
(cx-gui-do cx-activate-tab-index "Wall*Frame4" 2)
(cx-gui-do cx-activate-tab-index "Wall*Frame4" 0)
(cx-gui-do cx-activate-tab-index "Wall*Frame4" 3)
(cx-gui-do cx-activate-tab-index "Wall*Frame4" 0)
(cx-gui-do cx-activate-tab-index "Wall*Frame4" 4)
(cx-gui-do cx-activate-tab-index "Wall*Frame4" 0)
(cx-gui-do cx-activate-tab-index "Wall*Frame4" 5)
(cx-gui-do cx-activate-tab-index "Wall*Frame4" 0)
(cx-gui-do cx-activate-tab-index "Wall*Frame4" 6)
(cx-gui-do cx-activate-tab-index "Wall*Frame4" 0)
(cx-gui-do cx-activate-tab-index "Wall*Frame4" 7)
(cx-gui-do cx-activate-tab-index "Wall*Frame4" 0)
(cx-gui-do cx-activate-tab-index "Wall*Frame4" 8)
(cx-gui-do cx-activate-tab-index "Wall*Frame4" 0)
(cx-gui-do cx-activate-tab-index "Wall*Frame4" 9)
(cx-gui-do cx-activate-tab-index "Wall*Frame4" 0)
(cx-gui-do cx-activate-tab-index "Wall*Frame4" 10)
(cx-gui-do cx-activate-tab-index "Wall*Frame4" 0)
(cx-gui-do cx-activate-tab-index "Wall*Frame4*Frame8(Wall Film)*Frame1*Frame2" 0)
(cx-gui-do cx-activate-tab-index "Wall*Frame4*Frame8(Wall Film)*Frame1*Frame2" 1)
(cx-gui-do cx-activate-tab-index "Wall*Frame4*Frame8(Wall Film)*Frame1*Frame2" 0)
(cx-gui-do cx-activate-tab-index "Wall*Frame4*Frame8(Wall Film)*Frame1*Frame2" 2)
(cx-gui-do cx-activate-tab-index "Wall*Frame4*Frame8(Wall Film)*Frame1*Frame2" 0)
(cx-gui-do cx-activate-tab-index "Wall*Frame4*Frame8(Wall Film)*Frame1*Frame2" 3)
(cx-gui-do cx-activate-tab-index "Wall*Frame4*Frame8(Wall Film)*Frame1*Frame2" 0)
(cx-gui-do cx-activate-tab-index "Wall*Frame4*Frame8(Wall Film)*Frame1*Frame2" 4)
(cx-gui-do cx-activate-tab-index "Wall*Frame4*Frame8(Wall Film)*Frame1*Frame2" 0)
(cx-gui-do cx-activate-tab-index "Wall*Frame4*Frame8(Wall Film)*Frame1*Frame2" 5)
(cx-gui-do cx-activate-tab-index "Wall*Frame4*Frame8(Wall Film)*Frame1*Frame2" 0)
(cx-gui-do cx-activate-tab-index "Wall*Frame4*Frame8(Wall Film)*Frame1*Frame2" 6)
(cx-gui-do cx-activate-tab-index "Wall*Frame4*Frame8(Wall Film)*Frame1*Frame2" 0)
(cx-gui-do cx-activate-item "Wall*PanelButtons*PushButton2(Cancel)")
(cx-gui-do cx-activate-item "Wall*PanelButtons*PushButton2(Cancel)")
(cx-gui-do cx-set-list-tree-selections "NavigationPane*Frame2*Table1*List_Tree2" (list "Setup|Boundary Conditions|Outlet|vacuumboundaries (pressure-outlet, id=50)"))
(cx-gui-do cx-list-tree-right-click "NavigationPane*Frame2*Table1*List_Tree2" )
(cx-gui-do cx-activate-item "MenuBar*PopupMenuTree-vacuumboundaries (pressure-outlet, id=50)*Edit...")
(cx-gui-do cx-activate-tab-index "Pressure Outlet*Frame2*Frame2" 1)
(cx-gui-do cx-activate-tab-index "Pressure Outlet*Frame2*Frame2" 0)
(cx-gui-do cx-enable-apply-button "Pressure Outlet")
(cx-gui-do cx-set-expression-entry "Pressure Outlet*Frame2*Frame2*Frame1(Momentum)*Table1*Table7*ExpressionEntry1(Gauge Pressure)" '("1e-07" . 0))
(cx-gui-do cx-activate-item "Pressure Outlet*PanelButtons*PushButton1(OK)")
(cx-gui-do cx-activate-item "Pressure Outlet*PanelButtons*PushButton1(OK)")
(cx-gui-do cx-activate-tab-index "Pressure Outlet*Frame2*Frame2" 1)
(cx-gui-do cx-activate-tab-index "Pressure Outlet*Frame2*Frame2" 0)
(cx-gui-do cx-activate-item "Pressure Outlet*PanelButtons*PushButton2(Cancel)")
(cx-gui-do cx-set-list-tree-selections "NavigationPane*Frame2*Table1*List_Tree2" (list "Setup|Boundary Conditions|Outlet|vacuumboundaries (pressure-outlet, id=50)"))
(cx-gui-do cx-set-list-tree-selections "NavigationPane*Frame2*Table1*List_Tree2" (list "Setup|Boundary Conditions|Outlet|vacuumboundaries (pressure-outlet, id=50)"))
(cx-gui-do cx-activate-item "NavigationPane*Frame2*Table1*List_Tree2")
(cx-gui-do cx-set-list-tree-selections "NavigationPane*Frame2*Table1*List_Tree2" (list "Setup|Boundary Conditions|Outlet|vacuumboundaries (pressure-outlet, id=50)"))
(cx-gui-do cx-activate-item "Pressure Outlet*PanelButtons*PushButton2(Cancel)")
(cx-gui-do cx-set-list-tree-selections "NavigationPane*Frame2*Table1*List_Tree2" (list "Setup|Boundary Conditions"))
(cx-gui-do cx-list-tree-right-click "NavigationPane*Frame2*Table1*List_Tree2" )
(cx-gui-do cx-set-list-tree-selections "NavigationPane*Frame2*Table1*List_Tree2" (list "Setup|Boundary Conditions"))
(cx-gui-do cx-set-list-tree-selections "NavigationPane*Frame2*Table1*List_Tree2" (list "Setup|Boundary Conditions"))
(cx-gui-do cx-activate-item "NavigationPane*Frame2*Table1*List_Tree2")
(cx-gui-do cx-set-list-tree-selections "NavigationPane*Frame2*Table1*List_Tree2" (list "Setup|Boundary Conditions"))
(cx-gui-do cx-activate-item "Boundary Conditions*Table1*Table3*Table4*Table2*PushButton2(Operating Conditions)")
(cx-gui-do cx-set-expression-entry "Operating Conditions*Frame1*Table1(Pressure)*ExpressionEntry2(Operating Pressure)" '("0" . 0))
(cx-gui-do cx-activate-item "Operating Conditions*PanelButtons*PushButton1(OK)")
(cx-gui-do cx-set-list-tree-selections "NavigationPane*Frame2*Table1*List_Tree2" (list "Setup|Boundary Conditions|Inlet|inlet (pressure-inlet, id=41)"))
(cx-gui-do cx-set-list-tree-selections "NavigationPane*Frame2*Table1*List_Tree2" (list "Setup|Boundary Conditions|Inlet|inlet (pressure-inlet, id=41)"))
(cx-gui-do cx-activate-item "NavigationPane*Frame2*Table1*List_Tree2")
(cx-gui-do cx-set-list-tree-selections "NavigationPane*Frame2*Table1*List_Tree2" (list "Setup|Boundary Conditions|Inlet|inlet (pressure-inlet, id=41)"))
(cx-gui-do cx-activate-tab-index "Pressure Inlet*Frame2*Frame2" 1)
(cx-gui-do cx-activate-item "Pressure Inlet*PanelButtons*PushButton2(Cancel)")
(cx-gui-do cx-set-list-tree-selections "NavigationPane*Frame2*Table1*List_Tree2" (list "Setup|Boundary Conditions|Outlet|vacuumboundaries (pressure-outlet, id=50)"))
(cx-gui-do cx-set-list-tree-selections "NavigationPane*Frame2*Table1*List_Tree2" (list "Setup|Boundary Conditions|Outlet|vacuumboundaries (pressure-outlet, id=50)"))
(cx-gui-do cx-activate-item "NavigationPane*Frame2*Table1*List_Tree2")
(cx-gui-do cx-set-list-tree-selections "NavigationPane*Frame2*Table1*List_Tree2" (list "Setup|Boundary Conditions|Outlet|vacuumboundaries (pressure-outlet, id=50)"))
(cx-gui-do cx-set-list-tree-selections "NavigationPane*Frame2*Table1*List_Tree2" (list "Setup|Boundary Conditions|Outlet|vacuumboundaries (pressure-outlet, id=50)"))
(cx-gui-do cx-activate-item "Pressure Outlet*PanelButtons*PushButton2(Cancel)")
(cx-gui-do cx-set-list-tree-selections "NavigationPane*Frame2*Table1*List_Tree2" (list "Setup|Boundary Conditions|Wall|convergingside (wall, id=46)"))
(cx-gui-do cx-set-list-tree-selections "NavigationPane*Frame2*Table1*List_Tree2" (list "Setup|Boundary Conditions|Wall|convergingside (wall, id=46)"))
(cx-gui-do cx-activate-item "NavigationPane*Frame2*Table1*List_Tree2")
(cx-gui-do cx-set-list-tree-selections "NavigationPane*Frame2*Table1*List_Tree2" (list "Setup|Boundary Conditions|Wall|convergingside (wall, id=46)"))
(cx-gui-do cx-activate-tab-index "Wall*Frame4" 1)
(cx-gui-do cx-enable-apply-button "Wall")
(cx-gui-do cx-set-toggle-button2 "Wall*Frame4*Frame2(Thermal)*Frame1*Frame1(Thermal Conditions)*ToggleBox1*Temperature" #t)
(cx-gui-do cx-activate-item "Wall*Frame4*Frame2(Thermal)*Frame1*Frame1(Thermal Conditions)*ToggleBox1*Temperature")
(cx-gui-do cx-set-toggle-button2 "Wall*Frame4*Frame2(Thermal)*Frame1*Frame1(Thermal Conditions)*ToggleBox1*Heat Flux" #t)
(cx-gui-do cx-activate-item "Wall*Frame4*Frame2(Thermal)*Frame1*Frame1(Thermal Conditions)*ToggleBox1*Heat Flux")
(cx-gui-do cx-activate-item "Wall*PanelButtons*PushButton2(Cancel)")
(cx-gui-do cx-set-list-tree-selections "NavigationPane*Frame2*Table1*List_Tree2" (list "Setup|Boundary Conditions|Wall|divergingside (wall, id=44)"))
(cx-gui-do cx-set-list-tree-selections "NavigationPane*Frame2*Table1*List_Tree2" (list "Setup|Boundary Conditions|Wall|divergingside (wall, id=44)"))
(cx-gui-do cx-activate-item "NavigationPane*Frame2*Table1*List_Tree2")
(cx-gui-do cx-set-list-tree-selections "NavigationPane*Frame2*Table1*List_Tree2" (list "Setup|Boundary Conditions|Wall|divergingside (wall, id=44)"))
(cx-gui-do cx-activate-item "Wall*PanelButtons*PushButton2(Cancel)")
(cx-gui-do cx-set-list-tree-selections "NavigationPane*Frame2*Table1*List_Tree2" (list "Setup|Boundary Conditions|Wall|outsidewall (wall, id=52)"))
(cx-gui-do cx-set-list-tree-selections "NavigationPane*Frame2*Table1*List_Tree2" (list "Setup|Boundary Conditions|Wall|outsidewall (wall, id=52)"))
(cx-gui-do cx-activate-item "NavigationPane*Frame2*Table1*List_Tree2")
(cx-gui-do cx-set-list-tree-selections "NavigationPane*Frame2*Table1*List_Tree2" (list "Setup|Boundary Conditions|Wall|outsidewall (wall, id=52)"))
(cx-gui-do cx-activate-item "Wall*PanelButtons*PushButton2(Cancel)")
(cx-gui-do cx-set-list-tree-selections "NavigationPane*Frame2*Table1*List_Tree2" (list "Setup|Mesh Interfaces"))
(cx-gui-do cx-activate-item "Boundary Conditions*Table1*Table3*Table4*Table2*PushButton2(Operating Conditions)")
(cx-gui-do cx-activate-item "Operating Conditions*PanelButtons*PushButton2(Cancel)")
(cx-gui-do cx-activate-item "Boundary Conditions*Table1*Table3*Table4*ButtonBox1*PushButton3(Display Mesh)")
(cx-gui-do cx-activate-item "Mesh Display*PanelButtons*PushButton1(OK)")
(cx-gui-do cx-set-toggle-button2 "Mesh Display*Table1*Frame1*Frame1*ToggleBox1(Options)*CheckButton2(Edges)" #t)
(cx-gui-do cx-activate-item "Mesh Display*Table1*Frame1*Frame1*ToggleBox1(Options)*CheckButton2(Edges)")
(cx-gui-do cx-set-toggle-button2 "Mesh Display*Table1*Frame1*Frame1*ToggleBox1(Options)*CheckButton2(Edges)" #f)
(cx-gui-do cx-activate-item "Mesh Display*Table1*Frame1*Frame1*ToggleBox1(Options)*CheckButton2(Edges)")
(cx-gui-do cx-set-toggle-button2 "Mesh Display*Table1*Frame1*Frame1*ToggleBox1(Options)*CheckButton3(Faces)" #t)
(cx-gui-do cx-activate-item "Mesh Display*Table1*Frame1*Frame1*ToggleBox1(Options)*CheckButton3(Faces)")
(cx-gui-do cx-activate-item "Mesh Display*PanelButtons*PushButton1(OK)")
(cx-gui-do cx-activate-item "Mesh Display*PanelButtons*PushButton2(Cancel)")
(cx-gui-do cx-set-list-tree-selections "NavigationPane*Frame2*Table1*List_Tree2" (list "Solution|Methods"))
(cx-gui-do cx-set-list-tree-selections "NavigationPane*Frame2*Table1*List_Tree2" (list "Solution|Methods"))
(cx-gui-do cx-set-list-tree-selections "NavigationPane*Frame2*Table1*List_Tree2" (list "Solution|Methods"))
(cx-gui-do cx-activate-item "NavigationPane*Frame2*Table1*List_Tree2")
(cx-gui-do cx-set-list-tree-selections "NavigationPane*Frame2*Table1*List_Tree2" (list "Solution|Methods"))
(cx-gui-do cx-set-list-tree-selections "NavigationPane*Frame2*Table1*List_Tree2" (list "Solution|Controls"))
(cx-gui-do cx-set-list-tree-selections "NavigationPane*Frame2*Table1*List_Tree2" (list "Solution|Controls"))
(cx-gui-do cx-activate-item "NavigationPane*Frame2*Table1*List_Tree2")
(cx-gui-do cx-set-list-tree-selections "NavigationPane*Frame2*Table1*List_Tree2" (list "Solution|Controls"))
(cx-gui-do cx-set-list-tree-selections "NavigationPane*Frame2*Table1*List_Tree2" (list ))
(cx-gui-do cx-activate-item "NavigationPane*Frame2*Table1*List_Tree2")
(cx-gui-do cx-set-list-tree-selections "NavigationPane*Frame2*Table1*List_Tree2" (list ))
(cx-gui-do cx-set-list-tree-selections "NavigationPane*Frame2*Table1*List_Tree2" (list "Setup|Reference Frames"))
(cx-gui-do cx-set-list-tree-selections "NavigationPane*Frame2*Table1*List_Tree2" (list "Setup|Reference Values"))
(cx-gui-do cx-set-list-tree-selections "NavigationPane*Frame2*Table1*List_Tree2" (list "Setup|Reference Values"))
(cx-gui-do cx-activate-item "NavigationPane*Frame2*Table1*List_Tree2")
(cx-gui-do cx-set-list-tree-selections "NavigationPane*Frame2*Table1*List_Tree2" (list "Setup|Reference Values"))
(cx-gui-do cx-set-list-selections "Reference Values*DropDownList1(Compute from)" '( 6))
(cx-gui-do cx-activate-item "Reference Values*DropDownList1(Compute from)")
(cx-gui-do cx-set-list-tree-selections "NavigationPane*Frame2*Table1*List_Tree2" (list "Setup|Materials|Fluid|air"))
(cx-gui-do cx-list-tree-right-click "NavigationPane*Frame2*Table1*List_Tree2" )
(cx-gui-do cx-set-list-tree-selections "NavigationPane*Frame2*Table1*List_Tree2" (list "Setup|Materials|Fluid|r134a-approx"))
(cx-gui-do cx-set-list-tree-selections "NavigationPane*Frame2*Table1*List_Tree2" (list "Setup|Materials|Fluid|r134a-approx"))
(cx-gui-do cx-set-list-tree-selections "NavigationPane*Frame2*Table1*List_Tree2" (list "Setup|Materials|Fluid|r134a-approx"))
(cx-gui-do cx-activate-item "NavigationPane*Frame2*Table1*List_Tree2")
(cx-gui-do cx-set-list-tree-selections "NavigationPane*Frame2*Table1*List_Tree2" (list "Setup|Materials|Fluid|r134a-approx"))
(cx-gui-do cx-activate-item "Create/Edit Materials*PanelButtons*PushButton1(Close)")
(cx-gui-do cx-set-list-tree-selections "NavigationPane*Frame2*Table1*List_Tree2" (list "Setup|Materials|Fluid|air"))
(cx-gui-do cx-set-list-tree-selections "NavigationPane*Frame2*Table1*List_Tree2" (list "Setup|Materials|Fluid|air"))
(cx-gui-do cx-activate-item "NavigationPane*Frame2*Table1*List_Tree2")
(cx-gui-do cx-set-list-tree-selections "NavigationPane*Frame2*Table1*List_Tree2" (list "Setup|Materials|Fluid|air"))
(cx-gui-do cx-activate-item "Create/Edit Materials*PanelButtons*PushButton1(Close)")
(cx-gui-do cx-set-list-tree-selections "NavigationPane*Frame2*Table1*List_Tree2" (list "Setup|Cell Zone Conditions|Fluid|fluid (fluid, id=94)"))
(cx-gui-do cx-set-list-tree-selections "NavigationPane*Frame2*Table1*List_Tree2" (list "Setup|Cell Zone Conditions|Fluid|fluid (fluid, id=94)"))
(cx-gui-do cx-activate-item "NavigationPane*Frame2*Table1*List_Tree2")
(cx-gui-do cx-set-list-tree-selections "NavigationPane*Frame2*Table1*List_Tree2" (list "Setup|Cell Zone Conditions|Fluid|fluid (fluid, id=94)"))
(cx-gui-do cx-activate-tab-index "Fluid*Frame2*Table3*Frame1" 0)
(cx-gui-do cx-activate-tab-index "Fluid*Frame2*Table3*Frame1" 1)
(cx-gui-do cx-activate-tab-index "Fluid*Frame2*Table3*Frame1" 0)
(cx-gui-do cx-activate-tab-index "Fluid*Frame2*Table3*Frame1" 2)
(cx-gui-do cx-activate-tab-index "Fluid*Frame2*Table3*Frame1" 0)
(cx-gui-do cx-activate-tab-index "Fluid*Frame2*Table3*Frame1" 2)
(cx-gui-do cx-activate-tab-index "Fluid*Frame2*Table3*Frame1" 0)
(cx-gui-do cx-activate-tab-index "Fluid*Frame2*Table3*Frame1" 3)
(cx-gui-do cx-activate-tab-index "Fluid*Frame2*Table3*Frame1" 0)
(cx-gui-do cx-activate-tab-index "Fluid*Frame2*Table3*Frame1" 4)
(cx-gui-do cx-activate-tab-index "Fluid*Frame2*Table3*Frame1" 0)
(cx-gui-do cx-activate-tab-index "Fluid*Frame2*Table3*Frame1" 5)
(cx-gui-do cx-activate-tab-index "Fluid*Frame2*Table3*Frame1" 0)
(cx-gui-do cx-activate-tab-index "Fluid*Frame2*Table3*Frame1" 6)
(cx-gui-do cx-activate-tab-index "Fluid*Frame2*Table3*Frame1" 0)
(cx-gui-do cx-activate-tab-index "Fluid*Frame2*Table3*Frame1" 7)
(cx-gui-do cx-activate-tab-index "Fluid*Frame2*Table3*Frame1" 0)
(cx-gui-do cx-activate-tab-index "Fluid*Frame2*Table3*Frame1" 8)
(cx-gui-do cx-activate-tab-index "Fluid*Frame2*Table3*Frame1" 0)
(cx-gui-do cx-activate-tab-index "Fluid*Frame2*Table3*Frame1" 9)
(cx-gui-do cx-activate-tab-index "Fluid*Frame2*Table3*Frame1" 0)
(cx-gui-do cx-activate-tab-index "Fluid*Frame2*Table3*Frame1" 1)
(cx-gui-do cx-activate-tab-index "Fluid*Frame2*Table3*Frame1" 2)
(cx-gui-do cx-activate-tab-index "Fluid*Frame2*Table3*Frame1" 4)
(cx-gui-do cx-activate-tab-index "Fluid*Frame2*Table3*Frame1" 6)
(cx-gui-do cx-activate-tab-index "Fluid*Frame2*Table3*Frame1" 0)
(cx-gui-do cx-set-list-selections "Fluid*Frame2*Table1*Table1*DropDownList1(Material Name)" '( 0))
(cx-gui-do cx-enable-apply-button "Fluid")
(cx-gui-do cx-activate-item "Fluid*Frame2*Table1*Table1*DropDownList1(Material Name)")
(cx-gui-do cx-activate-item "Fluid*PanelButtons*PushButton1(OK)")

Warning: Face zone 43 of type interior is between cell zones with different materials.
         Material of cell zone 100 is air, while material of cell zone 94 is r134a-approx.
This will adversely affect the solution. It is recommended that you check and correct the cell zone materials, or convert the interior face zones noted above into coupled wall pairs using the following text command:
         /mesh/modify-zones/slit-interior-between-diff-materials
(cx-gui-do cx-activate-item "Fluid*PanelButtons*PushButton2(Cancel)")
(cx-gui-do cx-set-list-tree-selections "NavigationPane*Frame2*Table1*List_Tree2" (list "Setup|Cell Zone Conditions|Fluid|vacuum (fluid, id=100)"))
(cx-gui-do cx-set-list-tree-selections "NavigationPane*Frame2*Table1*List_Tree2" (list "Setup|Cell Zone Conditions|Fluid|vacuum (fluid, id=100)"))
(cx-gui-do cx-activate-item "NavigationPane*Frame2*Table1*List_Tree2")
(cx-gui-do cx-set-list-tree-selections "NavigationPane*Frame2*Table1*List_Tree2" (list "Setup|Cell Zone Conditions|Fluid|vacuum (fluid, id=100)"))
(cx-gui-do cx-activate-tab-index "Fluid*Frame2*Table3*Frame1" 0)
(cx-gui-do cx-activate-tab-index "Fluid*Frame2*Table3*Frame1" 1)
(cx-gui-do cx-activate-tab-index "Fluid*Frame2*Table3*Frame1" 0)
(cx-gui-do cx-activate-tab-index "Fluid*Frame2*Table3*Frame1" 2)
(cx-gui-do cx-activate-tab-index "Fluid*Frame2*Table3*Frame1" 0)
(cx-gui-do cx-activate-tab-index "Fluid*Frame2*Table3*Frame1" 2)
(cx-gui-do cx-activate-tab-index "Fluid*Frame2*Table3*Frame1" 0)
(cx-gui-do cx-activate-tab-index "Fluid*Frame2*Table3*Frame1" 3)
(cx-gui-do cx-activate-tab-index "Fluid*Frame2*Table3*Frame1" 0)
(cx-gui-do cx-activate-tab-index "Fluid*Frame2*Table3*Frame1" 4)
(cx-gui-do cx-activate-tab-index "Fluid*Frame2*Table3*Frame1" 0)
(cx-gui-do cx-activate-tab-index "Fluid*Frame2*Table3*Frame1" 5)
(cx-gui-do cx-activate-tab-index "Fluid*Frame2*Table3*Frame1" 0)
(cx-gui-do cx-activate-tab-index "Fluid*Frame2*Table3*Frame1" 6)
(cx-gui-do cx-activate-tab-index "Fluid*Frame2*Table3*Frame1" 0)
(cx-gui-do cx-activate-tab-index "Fluid*Frame2*Table3*Frame1" 7)
(cx-gui-do cx-activate-tab-index "Fluid*Frame2*Table3*Frame1" 0)
(cx-gui-do cx-activate-tab-index "Fluid*Frame2*Table3*Frame1" 8)
(cx-gui-do cx-activate-tab-index "Fluid*Frame2*Table3*Frame1" 0)
(cx-gui-do cx-activate-tab-index "Fluid*Frame2*Table3*Frame1" 9)
(cx-gui-do cx-activate-tab-index "Fluid*Frame2*Table3*Frame1" 0)
(cx-gui-do cx-activate-tab-index "Fluid*Frame2*Table3*Frame1" 1)
(cx-gui-do cx-activate-tab-index "Fluid*Frame2*Table3*Frame1" 2)
(cx-gui-do cx-activate-tab-index "Fluid*Frame2*Table3*Frame1" 4)
(cx-gui-do cx-activate-tab-index "Fluid*Frame2*Table3*Frame1" 6)
(cx-gui-do cx-activate-tab-index "Fluid*Frame2*Table3*Frame1" 0)
(cx-gui-do cx-set-list-selections "Fluid*Frame2*Table1*Table1*DropDownList1(Material Name)" '( 0))
(cx-gui-do cx-enable-apply-button "Fluid")
(cx-gui-do cx-activate-item "Fluid*Frame2*Table1*Table1*DropDownList1(Material Name)")
(cx-gui-do cx-activate-item "Fluid*PanelButtons*PushButton1(OK)")
(cx-gui-do cx-activate-item "Fluid*PanelButtons*PushButton1(OK)")
(cx-gui-do cx-enable-apply-button "Fluid")
(cx-gui-do cx-activate-item "Fluid*PanelButtons*PushButton2(Cancel)")
(cx-gui-do cx-set-list-tree-selections "NavigationPane*Frame2*Table1*List_Tree2" (list "Setup|Cell Zone Conditions|Fluid|fluid (fluid, id=94)"))
(cx-gui-do cx-set-list-tree-selections "NavigationPane*Frame2*Table1*List_Tree2" (list "Setup|Cell Zone Conditions|Fluid|fluid (fluid, id=94)"))
(cx-gui-do cx-activate-item "NavigationPane*Frame2*Table1*List_Tree2")
(cx-gui-do cx-set-list-tree-selections "NavigationPane*Frame2*Table1*List_Tree2" (list "Setup|Cell Zone Conditions|Fluid|fluid (fluid, id=94)"))
(cx-gui-do cx-activate-item "Fluid*PanelButtons*PushButton2(Cancel)")
(cx-gui-do cx-set-list-selections "Reference Values*DropDownList1(Compute from)" '( 3))
(cx-gui-do cx-activate-item "Reference Values*DropDownList1(Compute from)")
(cx-gui-do cx-set-list-selections "Reference Values*DropDownList1(Compute from)" '( 6))
(cx-gui-do cx-activate-item "Reference Values*DropDownList1(Compute from)")
(cx-gui-do cx-set-list-tree-selections "NavigationPane*Frame2*Table1*List_Tree2" (list "Setup|Cell Zone Conditions|Fluid|vacuum (fluid, id=100)"))
(cx-gui-do cx-activate-item "Ribbon*Frame1*Frame5(Solution)*Table1*Table3(Reports)*PushButton2(Definitions)")
(cx-gui-do cx-activate-item "Ribbon*Frame1*Frame5(Solution)*Table1*Table3(Reports)*PushButton2(Definitions)")
(cx-gui-do cx-set-list-tree-selections "NavigationPane*Frame2*Table1*List_Tree2" (list "Setup|General"))
(cx-gui-do cx-set-list-tree-selections "NavigationPane*Frame2*Table1*List_Tree2" (list "Setup|General"))
(cx-gui-do cx-set-list-tree-selections "NavigationPane*Frame2*Table1*List_Tree2" (list "Setup|General"))
(cx-gui-do cx-activate-item "NavigationPane*Frame2*Table1*List_Tree2")
(cx-gui-do cx-set-list-tree-selections "NavigationPane*Frame2*Table1*List_Tree2" (list "Setup|General"))
(cx-gui-do cx-set-list-tree-selections "NavigationPane*Frame2*Table1*List_Tree2" (list "Solution|Report Definitions"))
(cx-gui-do cx-activate-item "Ribbon*Frame1*Frame5(Solution)*Table1*Table3(Reports)*PushButton2(Definitions)")
(cx-gui-do cx-activate-item "MenuBar*Surface ReportSubMenu*Mass Flow Rate...")
(cx-gui-do cx-set-text-entry "Surface Report Definition*Table1*Table1*TextEntry1(Name)" "mass-flow-rate_inlet")
(cx-gui-do cx-activate-item "Surface Report Definition*Table1*Table1*TextEntry1(Name)")
(cx-gui-do cx-set-list-selections "Surface Report Definition*Table1*Table2*Table6*List1(Surfaces)" '( 4))
(cx-gui-do cx-activate-item "Surface Report Definition*Table1*Table2*Table6*List1(Surfaces)")
(cx-gui-do cx-activate-item "Surface Report Definition*PanelButtons*PushButton4(Compute)")

Error: Report computation failed.

Solution not initialized

Error Object: #f
(cx-gui-do cx-activate-item "Error*OK")
(cx-gui-do cx-set-toggle-button2 "Surface Report Definition*Table1*Table1*Table6(Create)*CheckButton4(Print to Console)" #t)
(cx-gui-do cx-activate-item "Surface Report Definition*Table1*Table1*Table6(Create)*CheckButton4(Print to Console)")
(cx-gui-do cx-activate-item "Surface Report Definition*PanelButtons*PushButton1(OK)")
(cx-gui-do cx-activate-item "Ribbon*Frame1*Frame5(Solution)*Table1*Table3(Reports)*PushButton2(Definitions)")
(cx-gui-do cx-activate-item "MenuBar*Surface ReportSubMenu*Mass Flow Rate...")
(cx-gui-do cx-set-list-selections "Surface Report Definition*Table1*Table2*Table6*List1(Surfaces)" '( 7))
(cx-gui-do cx-activate-item "Surface Report Definition*Table1*Table2*Table6*List1(Surfaces)")
(cx-gui-do cx-set-text-entry "Surface Report Definition*Table1*Table1*TextEntry1(Name)" "mass-flow-rate_outlet")
(cx-gui-do cx-activate-item "Surface Report Definition*Table1*Table1*TextEntry1(Name)")
(cx-gui-do cx-set-toggle-button2 "Surface Report Definition*Table1*Table1*Table6(Create)*CheckButton4(Print to Console)" #t)
(cx-gui-do cx-activate-item "Surface Report Definition*Table1*Table1*Table6(Create)*CheckButton4(Print to Console)")
(cx-gui-do cx-activate-item "Surface Report Definition*PanelButtons*PushButton1(OK)")
(cx-gui-do cx-activate-item "Ribbon*Frame1*Frame5(Solution)*Table1*Table3(Reports)*PushButton2(Definitions)")
(cx-gui-do cx-activate-item "MenuBar*Surface ReportSubMenu*Mass-Weighted Average...")
(cx-gui-do cx-set-text-entry "Surface Report Definition*Table1*Table1*TextEntry1(Name)" "exit-mach")
(cx-gui-do cx-activate-item "Surface Report Definition*Table1*Table1*TextEntry1(Name)")
(cx-gui-do cx-set-list-selections "Surface Report Definition*Table1*Table2*Table6*List1(Surfaces)" '( 7))
(cx-gui-do cx-activate-item "Surface Report Definition*Table1*Table2*Table6*List1(Surfaces)")
(cx-gui-do cx-activate-item "Surface Report Definition*PanelButtons*PushButton1(OK)")
(cx-gui-do cx-activate-item "Ribbon*Frame1*Frame5(Solution)*Table1*Table3(Reports)*PushButton2(Definitions)")
(cx-gui-do cx-activate-item "MenuBar*Surface ReportSubMenu*Mass-Weighted Average...")
(cx-gui-do cx-set-text-entry "Surface Report Definition*Table1*Table1*TextEntry1(Name)" "exit-velocity")
(cx-gui-do cx-activate-item "Surface Report Definition*Table1*Table1*TextEntry1(Name)")
(cx-gui-do cx-set-list-selections "Surface Report Definition*Table1*Table2*Table6*List1(Surfaces)" '( 7))
(cx-gui-do cx-activate-item "Surface Report Definition*Table1*Table2*Table6*List1(Surfaces)")
(cx-gui-do cx-set-toggle-button2 "Surface Report Definition*Table1*Table1*Table6(Create)*CheckButton4(Print to Console)" #t)
(cx-gui-do cx-activate-item "Surface Report Definition*Table1*Table1*Table6(Create)*CheckButton4(Print to Console)")
(cx-gui-do cx-activate-item "Surface Report Definition*PanelButtons*PushButton1(OK)")
(cx-gui-do cx-set-list-tree-selections "NavigationPane*Frame2*Table1*List_Tree2" (list "Solution|Report Definitions|exit-mach"))
(cx-gui-do cx-set-list-tree-selections "NavigationPane*Frame2*Table1*List_Tree2" (list "Solution|Report Definitions|exit-mach"))
(cx-gui-do cx-activate-item "NavigationPane*Frame2*Table1*List_Tree2")
(cx-gui-do cx-set-list-tree-selections "NavigationPane*Frame2*Table1*List_Tree2" (list "Solution|Report Definitions|exit-mach"))
(cx-gui-do cx-set-toggle-button2 "Surface Report Definition*Table1*Table1*CheckButton5(Create Output Parameter)" #t)
(cx-gui-do cx-activate-item "Surface Report Definition*Table1*Table1*CheckButton5(Create Output Parameter)")
(cx-gui-do cx-set-toggle-button2 "Surface Report Definition*Table1*Table1*CheckButton5(Create Output Parameter)" #f)
(cx-gui-do cx-activate-item "Surface Report Definition*Table1*Table1*CheckButton5(Create Output Parameter)")
(cx-gui-do cx-set-list-selections "Surface Report Definition*Table1*Table2*Table6*List1(Surfaces)" '())
(cx-gui-do cx-activate-item "Surface Report Definition*Table1*Table2*Table6*List1(Surfaces)")
(cx-gui-do cx-set-list-selections "Surface Report Definition*Table1*Table2*Table6*List1(Surfaces)" '( 7))
(cx-gui-do cx-activate-item "Surface Report Definition*Table1*Table2*Table6*List1(Surfaces)")
(cx-gui-do cx-activate-item "Surface Report Definition*PanelButtons*PushButton2(Cancel)")
(cx-gui-do cx-set-list-tree-selections "NavigationPane*Frame2*Table1*List_Tree2" (list "Solution|Report Definitions|exit-mach"))
(cx-gui-do cx-list-tree-right-click "NavigationPane*Frame2*Table1*List_Tree2" )
(cx-gui-do cx-activate-item "MenuBar*PopupMenuTree-exit-mach*Delete")
(cx-gui-do cx-activate-item "Question*OK")
(cx-gui-do cx-activate-item "Question*OK")
(cx-gui-do cx-set-list-tree-selections "NavigationPane*Frame2*Table1*List_Tree2" (list "Solution|Report Definitions|mass-flow-rate_inlet"))
(cx-gui-do cx-set-list-tree-selections "NavigationPane*Frame2*Table1*List_Tree2" (list "Solution|Report Definitions|mass-flow-rate_inlet"))
(cx-gui-do cx-activate-item "NavigationPane*Frame2*Table1*List_Tree2")
(cx-gui-do cx-set-list-tree-selections "NavigationPane*Frame2*Table1*List_Tree2" (list "Solution|Report Definitions|mass-flow-rate_inlet"))
(cx-gui-do cx-activate-item "Surface Report Definition*PanelButtons*PushButton2(Cancel)")
(cx-gui-do cx-set-list-tree-selections "NavigationPane*Frame2*Table1*List_Tree2" (list "Solution|Report Definitions|mass-flow-rate_outlet"))
(cx-gui-do cx-set-list-tree-selections "NavigationPane*Frame2*Table1*List_Tree2" (list "Solution|Report Definitions|mass-flow-rate_outlet"))
(cx-gui-do cx-activate-item "NavigationPane*Frame2*Table1*List_Tree2")
(cx-gui-do cx-set-list-tree-selections "NavigationPane*Frame2*Table1*List_Tree2" (list "Solution|Report Definitions|mass-flow-rate_outlet"))
(cx-gui-do cx-activate-item "Surface Report Definition*PanelButtons*PushButton2(Cancel)")
(cx-gui-do cx-set-list-tree-selections "NavigationPane*Frame2*Table1*List_Tree2" (list "Solution|Report Definitions|exit-velocity"))
(cx-gui-do cx-set-list-tree-selections "NavigationPane*Frame2*Table1*List_Tree2" (list "Solution|Report Definitions|exit-velocity"))
(cx-gui-do cx-activate-item "NavigationPane*Frame2*Table1*List_Tree2")
(cx-gui-do cx-set-list-tree-selections "NavigationPane*Frame2*Table1*List_Tree2" (list "Solution|Report Definitions|exit-velocity"))
(cx-gui-do cx-activate-item "Surface Report Definition*PanelButtons*PushButton2(Cancel)")
(cx-gui-do cx-activate-item "Ribbon*Frame1*Frame5(Solution)*Table1*Table3(Reports)*PushButton2(Definitions)")
(cx-gui-do cx-activate-item "MenuBar*Surface ReportSubMenu*Mass-Weighted Average...")
(cx-gui-do cx-set-list-selections "Surface Report Definition*Table1*Table2*Table6*List1(Surfaces)" '( 7))
(cx-gui-do cx-activate-item "Surface Report Definition*Table1*Table2*Table6*List1(Surfaces)")
(cx-gui-do cx-set-text-entry "Surface Report Definition*Table1*Table1*TextEntry1(Name)" "exit-mach")
(cx-gui-do cx-activate-item "Surface Report Definition*Table1*Table1*TextEntry1(Name)")
(cx-gui-do cx-activate-item "Surface Report Definition*PanelButtons*PushButton1(OK)")
(cx-gui-do cx-activate-item "Ribbon*Frame1*Frame5(Solution)*Table1*Table3(Reports)*PushButton2(Definitions)")
(cx-gui-do cx-activate-item "MenuBar*Surface ReportSubMenu*Area-Weighted Average...")
(cx-gui-do cx-activate-item "Surface Report Definition*PanelButtons*PushButton2(Cancel)")
(cx-gui-do cx-set-list-tree-selections "NavigationPane*Frame2*Table1*List_Tree2" (list "Solution|Report Definitions|exit-velocity"))
(cx-gui-do cx-set-list-tree-selections "NavigationPane*Frame2*Table1*List_Tree2" (list "Solution|Report Definitions|exit-velocity"))
(cx-gui-do cx-activate-item "NavigationPane*Frame2*Table1*List_Tree2")
(cx-gui-do cx-set-list-tree-selections "NavigationPane*Frame2*Table1*List_Tree2" (list "Solution|Report Definitions|exit-velocity"))
(cx-gui-do cx-activate-item "Surface Report Definition*PanelButtons*PushButton2(Cancel)")
(cx-gui-do cx-set-list-tree-selections "NavigationPane*Frame2*Table1*List_Tree2" (list "Solution|Report Definitions|mass-flow-rate_inlet"))
(cx-gui-do cx-set-list-tree-selections "NavigationPane*Frame2*Table1*List_Tree2" (list "Solution|Report Definitions|mass-flow-rate_inlet"))
(cx-gui-do cx-activate-item "NavigationPane*Frame2*Table1*List_Tree2")
(cx-gui-do cx-set-list-tree-selections "NavigationPane*Frame2*Table1*List_Tree2" (list "Solution|Report Definitions|mass-flow-rate_inlet"))
(cx-gui-do cx-activate-item "Surface Report Definition*PanelButtons*PushButton2(Cancel)")
(cx-gui-do cx-set-list-tree-selections "NavigationPane*Frame2*Table1*List_Tree2" (list "Solution|Report Definitions|exit-mach"))
(cx-gui-do cx-list-tree-right-click "NavigationPane*Frame2*Table1*List_Tree2" )
(cx-gui-do cx-activate-item "MenuBar*PopupMenuTree-exit-mach*Delete")
(cx-gui-do cx-activate-item "Question*Cancel")
(cx-gui-do cx-set-list-tree-selections "NavigationPane*Frame2*Table1*List_Tree2" (list "Solution|Report Definitions|mass-flow-rate_outlet"))
(cx-gui-do cx-set-list-tree-selections "NavigationPane*Frame2*Table1*List_Tree2" (list "Solution|Report Definitions|exit-mach""Solution|Report Definitions|exit-velocity""Solution|Report Definitions|mass-flow-rate_inlet""Solution|Report Definitions|mass-flow-rate_outlet"))
(cx-gui-do cx-set-list-tree-selections "NavigationPane*Frame2*Table1*List_Tree2" (list "Solution|Report Definitions|exit-mach""Solution|Report Definitions|exit-velocity""Solution|Report Definitions|mass-flow-rate_inlet""Solution|Report Definitions|mass-flow-rate_outlet"))
(cx-gui-do cx-list-tree-right-click "NavigationPane*Frame2*Table1*List_Tree2" )
(cx-gui-do cx-activate-item "MenuBar*PopupMenuPopupMenu*Delete")
(cx-gui-do cx-activate-item "Question *PanelButtons*PushButton3(Yes)")
(cx-gui-do cx-activate-item "Question*OK")
(cx-gui-do cx-activate-item "Question*OK")
(cx-gui-do cx-activate-item "Question*OK")
(cx-gui-do cx-activate-item "Question*OK")
(cx-gui-do cx-activate-item "Ribbon*Frame1*Frame5(Solution)*Table1*Table3(Reports)*PushButton2(Definitions)")
(cx-gui-do cx-activate-item "MenuBar*Surface ReportSubMenu*Mass Flow Rate...")
(cx-gui-do cx-set-text-entry "Surface Report Definition*Table1*Table1*TextEntry1(Name)" "mass-flow-rate_inlet")
(cx-gui-do cx-activate-item "Surface Report Definition*Table1*Table1*TextEntry1(Name)")
(cx-gui-do cx-set-list-selections "Surface Report Definition*Table1*Table2*Table6*List1(Surfaces)" '( 7))
(cx-gui-do cx-activate-item "Surface Report Definition*Table1*Table2*Table6*List1(Surfaces)")
(cx-gui-do cx-set-list-selections "Surface Report Definition*Table1*Table2*DropDownList1(Report Type)" '( 0))
(cx-gui-do cx-activate-item "Surface Report Definition*Table1*Table2*DropDownList1(Report Type)")
(cx-gui-do cx-set-list-selections "Surface Report Definition*Table1*Table2*DropDownList1(Report Type)" '( 4))
(cx-gui-do cx-activate-item "Surface Report Definition*Table1*Table2*DropDownList1(Report Type)")
(cx-gui-do cx-set-list-selections "Surface Report Definition*Table1*Table2*DropDownList1(Report Type)" '( 7))
(cx-gui-do cx-activate-item "Surface Report Definition*Table1*Table2*DropDownList1(Report Type)")
(cx-gui-do cx-set-list-selections "Surface Report Definition*Table1*Table2*DropDownList1(Report Type)" '( 4))
(cx-gui-do cx-activate-item "Surface Report Definition*Table1*Table2*DropDownList1(Report Type)")
(cx-gui-do cx-set-toggle-button2 "Surface Report Definition*Table1*Table1*Table6(Create)*CheckButton4(Print to Console)" #t)
(cx-gui-do cx-activate-item "Surface Report Definition*Table1*Table1*Table6(Create)*CheckButton4(Print to Console)")
(cx-gui-do cx-activate-item "Surface Report Definition*PanelButtons*PushButton1(OK)")
(cx-gui-do cx-activate-item "Ribbon*Frame1*Frame5(Solution)*Table1*Table3(Reports)*PushButton2(Definitions)")
(cx-gui-do cx-activate-item "MenuBar*Surface ReportSubMenu*Mass Flow Rate...")
(cx-gui-do cx-set-text-entry "Surface Report Definition*Table1*Table1*TextEntry1(Name)" "mass-flow-rate_outlet")
(cx-gui-do cx-activate-item "Surface Report Definition*Table1*Table1*TextEntry1(Name)")
(cx-gui-do cx-set-list-selections "Surface Report Definition*Table1*Table2*Table6*List1(Surfaces)" '( 7))
(cx-gui-do cx-activate-item "Surface Report Definition*Table1*Table2*Table6*List1(Surfaces)")
(cx-gui-do cx-set-toggle-button2 "Surface Report Definition*Table1*Table1*Table6(Create)*CheckButton4(Print to Console)" #t)
(cx-gui-do cx-activate-item "Surface Report Definition*Table1*Table1*Table6(Create)*CheckButton4(Print to Console)")
(cx-gui-do cx-activate-item "Surface Report Definition*PanelButtons*PushButton1(OK)")
(cx-gui-do cx-activate-item "Ribbon*Frame1*Frame5(Solution)*Table1*Table3(Reports)*PushButton2(Definitions)")
(cx-gui-do cx-activate-item "MenuBar*Surface ReportSubMenu*Mass-Weighted Average...")
(cx-gui-do cx-set-text-entry "Surface Report Definition*Table1*Table1*TextEntry1(Name)" "exit-velocity")
(cx-gui-do cx-activate-item "Surface Report Definition*Table1*Table1*TextEntry1(Name)")
(cx-gui-do cx-set-list-selections "Surface Report Definition*Table1*Table2*Table6*List1(Surfaces)" '( 7))
(cx-gui-do cx-activate-item "Surface Report Definition*Table1*Table2*Table6*List1(Surfaces)")
(cx-gui-do cx-set-list-selections "Surface Report Definition*Table1*Table2*DropDownList3(Field Variable)" '( 2))
(cx-gui-do cx-activate-item "Surface Report Definition*Table1*Table2*DropDownList3(Field Variable)")
(cx-gui-do cx-set-list-selections "Surface Report Definition*Table1*Table2*DropDownList4" '( 1))
(cx-gui-do cx-activate-item "Surface Report Definition*Table1*Table2*DropDownList4")
(cx-gui-do cx-activate-item "Surface Report Definition*PanelButtons*PushButton1(OK)")
(cx-gui-do cx-activate-item "Ribbon*Frame1*Frame5(Solution)*Table1*Table3(Reports)*PushButton2(Definitions)")
(cx-gui-do cx-activate-item "MenuBar*Surface ReportSubMenu*Mass-Weighted Average...")
(cx-gui-do cx-set-list-selections "Surface Report Definition*Table1*Table2*Table6*List1(Surfaces)" '( 7))
(cx-gui-do cx-activate-item "Surface Report Definition*Table1*Table2*Table6*List1(Surfaces)")
(cx-gui-do cx-set-text-entry "Surface Report Definition*Table1*Table1*TextEntry1(Name)" "exit-mach")
(cx-gui-do cx-activate-item "Surface Report Definition*Table1*Table1*TextEntry1(Name)")
(cx-gui-do cx-set-list-selections "Surface Report Definition*Table1*Table2*DropDownList3(Field Variable)" '( 2))
(cx-gui-do cx-activate-item "Surface Report Definition*Table1*Table2*DropDownList3(Field Variable)")
(cx-gui-do cx-set-list-selections "Surface Report Definition*Table1*Table2*DropDownList4" '( 4))
(cx-gui-do cx-activate-item "Surface Report Definition*Table1*Table2*DropDownList4")
(cx-gui-do cx-set-toggle-button2 "Surface Report Definition*Table1*Table1*Table6(Create)*CheckButton4(Print to Console)" #t)
(cx-gui-do cx-activate-item "Surface Report Definition*Table1*Table1*Table6(Create)*CheckButton4(Print to Console)")
(cx-gui-do cx-activate-item "Surface Report Definition*PanelButtons*PushButton1(OK)")
(cx-gui-do cx-set-list-tree-selections "NavigationPane*Frame2*Table1*List_Tree2" (list "Solution|Report Definitions|exit-velocity"))
(cx-gui-do cx-set-list-tree-selections "NavigationPane*Frame2*Table1*List_Tree2" (list "Solution|Report Definitions|exit-velocity"))
(cx-gui-do cx-activate-item "NavigationPane*Frame2*Table1*List_Tree2")
(cx-gui-do cx-set-list-tree-selections "NavigationPane*Frame2*Table1*List_Tree2" (list "Solution|Report Definitions|exit-velocity"))
(cx-gui-do cx-activate-item "Surface Report Definition*PanelButtons*PushButton2(Cancel)")
(cx-gui-do cx-activate-item "Ribbon*Frame1*Frame5(Solution)*Table1*Table3(Reports)*PushButton2(Definitions)")
(cx-gui-do cx-activate-item "MenuBar*Surface ReportSubMenu*Area-Weighted Average...")
(cx-gui-do cx-set-text-entry "Surface Report Definition*Table1*Table1*TextEntry1(Name)" "exit-static-pressure")
(cx-gui-do cx-activate-item "Surface Report Definition*Table1*Table1*TextEntry1(Name)")
(cx-gui-do cx-set-list-selections "Surface Report Definition*Table1*Table2*Table6*List1(Surfaces)" '( 7))
(cx-gui-do cx-activate-item "Surface Report Definition*Table1*Table2*Table6*List1(Surfaces)")
(cx-gui-do cx-set-toggle-button2 "Surface Report Definition*Table1*Table1*Table6(Create)*CheckButton4(Print to Console)" #t)
(cx-gui-do cx-activate-item "Surface Report Definition*Table1*Table1*Table6(Create)*CheckButton4(Print to Console)")
(cx-gui-do cx-activate-item "Surface Report Definition*PanelButtons*PushButton1(OK)")
(cx-gui-do cx-activate-item "Ribbon*Frame1*Frame5(Solution)*Table1*Table3(Reports)*PushButton2(Definitions)")
(cx-gui-do cx-activate-item "MenuBar*Surface ReportSubMenu*Mass-Weighted Average...")
(cx-gui-do cx-set-list-selections "Surface Report Definition*Table1*Table2*Table6*List1(Surfaces)" '( 7))
(cx-gui-do cx-activate-item "Surface Report Definition*Table1*Table2*Table6*List1(Surfaces)")
(cx-gui-do cx-set-text-entry "Surface Report Definition*Table1*Table1*TextEntry1(Name)" "exit-static-temperature")
(cx-gui-do cx-activate-item "Surface Report Definition*Table1*Table1*TextEntry1(Name)")
(cx-gui-do cx-set-list-selections "Surface Report Definition*Table1*Table2*DropDownList3(Field Variable)" '( 3))
(cx-gui-do cx-activate-item "Surface Report Definition*Table1*Table2*DropDownList3(Field Variable)")
(cx-gui-do cx-activate-item "Surface Report Definition*PanelButtons*PushButton1(OK)")
(cx-gui-do cx-activate-item "Ribbon*Frame1*Frame5(Solution)*Table1*Table3(Reports)*PushButton2(Definitions)")
(cx-gui-do cx-activate-item "MenuBar*Force ReportSubMenu*Force...")
(cx-gui-do cx-set-text-entry "Force Report Definition*Table1*TextEntry3(Name)" "thrust")
(cx-gui-do cx-activate-item "Force Report Definition*Table1*TextEntry3(Name)")
(cx-gui-do cx-set-toggle-button2 "Force Report Definition*Table1*Table1*Table5(Create)*CheckButton4(Print to Console)" #t)
(cx-gui-do cx-activate-item "Force Report Definition*Table1*Table1*Table5(Create)*CheckButton4(Print to Console)")
(cx-gui-do cx-set-list-selections "Force Report Definition*Table1*Table2*List2(Zones)" '( 0))
(cx-gui-do cx-activate-item "Force Report Definition*Table1*Table2*List2(Zones)")
(cx-gui-do cx-set-list-selections "Force Report Definition*Table1*Table2*List2(Zones)" '())
(cx-gui-do cx-activate-item "Force Report Definition*Table1*Table2*List2(Zones)")
(cx-gui-do cx-set-list-selections "Force Report Definition*Table1*Table2*List2(Zones)" '( 1))
(cx-gui-do cx-activate-item "Force Report Definition*Table1*Table2*List2(Zones)")
(cx-gui-do cx-set-toggle-button2 "Force Report Definition*Table1*Table1*Table1(Options)*CheckButton6(Per Zone)" #t)
(cx-gui-do cx-activate-item "Force Report Definition*Table1*Table1*Table1(Options)*CheckButton6(Per Zone)")
(cx-gui-do cx-set-integer-entry "Force Report Definition*Table1*Table1*Table1(Options)*IntegerEntry7(Average Over)" 2)
(cx-gui-do cx-activate-item "Force Report Definition*Table1*Table1*Table1(Options)*IntegerEntry7(Average Over)")
(cx-gui-do cx-set-integer-entry "Force Report Definition*Table1*Table1*Table1(Options)*IntegerEntry7(Average Over)" 1)
(cx-gui-do cx-activate-item "Force Report Definition*Table1*Table1*Table1(Options)*IntegerEntry7(Average Over)")
(cx-gui-do cx-set-toggle-button2 "Force Report Definition*Table1*Table1*Table1(Options)*CheckButton6(Per Zone)" #f)
(cx-gui-do cx-activate-item "Force Report Definition*Table1*Table1*Table1(Options)*CheckButton6(Per Zone)")
(cx-gui-do cx-activate-item "Force Report Definition*PanelButtons*PushButton2(Cancel)")
(cx-gui-do cx-activate-item "Ribbon*Frame1*Frame5(Solution)*Table1*Table3(Reports)*PushButton2(Definitions)")
(cx-gui-do cx-activate-item "MenuBar*Force ReportSubMenu*Force...")
(cx-gui-do cx-set-toggle-button2 "Force Report Definition*Table1*Table1*Table5(Create)*CheckButton4(Print to Console)" #t)
(cx-gui-do cx-activate-item "Force Report Definition*Table1*Table1*Table5(Create)*CheckButton4(Print to Console)")
(cx-gui-do cx-set-text-entry "Force Report Definition*Table1*TextEntry3(Name)" "thrust")
(cx-gui-do cx-activate-item "Force Report Definition*Table1*TextEntry3(Name)")
(cx-gui-do cx-set-list-selections "Force Report Definition*Table1*Table2*List2(Zones)" '( 1))
(cx-gui-do cx-activate-item "Force Report Definition*Table1*Table2*List2(Zones)")
(cx-gui-do cx-activate-item "Force Report Definition*PanelButtons*PushButton1(OK)")
(cx-gui-do cx-set-list-tree-selections "NavigationPane*Frame2*Table1*List_Tree2" (list "Solution|Initialization"))
(cx-gui-do cx-set-list-tree-selections "NavigationPane*Frame2*Table1*List_Tree2" (list "Solution|Initialization"))
(cx-gui-do cx-set-list-tree-selections "NavigationPane*Frame2*Table1*List_Tree2" (list "Solution|Initialization"))
(cx-gui-do cx-activate-item "NavigationPane*Frame2*Table1*List_Tree2")
(cx-gui-do cx-set-list-tree-selections "NavigationPane*Frame2*Table1*List_Tree2" (list "Solution|Initialization"))
(cx-gui-do cx-set-toggle-button2 "Solution Initialization*Table1*ToggleBox3(Initialization Methods)*Standard Initialization" #t)
(cx-gui-do cx-activate-item "Solution Initialization*Table1*ToggleBox3(Initialization Methods)*Standard Initialization")
(cx-gui-do cx-set-list-selections "Solution Initialization*Table1*DropDownList1(Compute from)" '( 5))
(cx-gui-do cx-activate-item "Solution Initialization*Table1*DropDownList1(Compute from)")
(cx-gui-do cx-activate-item "Solution Initialization*Table1*Frame9*PushButton1(Initialize)")
(cx-gui-do cx-set-list-tree-selections "NavigationPane*Frame2*Table1*List_Tree2" (list "Solution|Calculation Activities"))
(cx-gui-do cx-set-list-tree-selections "NavigationPane*Frame2*Table1*List_Tree2" (list "Solution|Calculation Activities"))
(cx-gui-do cx-activate-item "NavigationPane*Frame2*Table1*List_Tree2")
(cx-gui-do cx-set-list-tree-selections "NavigationPane*Frame2*Table1*List_Tree2" (list "Solution|Calculation Activities"))
(cx-gui-do cx-set-list-tree-selections "NavigationPane*Frame2*Table1*List_Tree2" (list "Solution|Calculation Activities"))
(cx-gui-do cx-activate-item "Ribbon*Frame1*Frame5(Solution)*Table1*PushButton1(Run Calculation)")
(cx-gui-do cx-set-integer-entry "Ribbon*Frame1*Frame5(Solution)*Table1*Table3(Run Calculation)*Table6*IntegerEntry16(No  of Iterations)" 500)
(cx-gui-do cx-activate-item "Ribbon*Frame1*Frame5(Solution)*Table1*Table3(Run Calculation)*Table6*IntegerEntry16(No  of Iterations)")
(cx-gui-do cx-activate-item "Ribbon*Frame1*Frame5(Solution)*Table1*Table3(Run Calculation)*PushButton9(Calculate)")


  iter  continuity  x-velocity  y-velocity      energy           k       omega      thrust  exit-stati   exit-mach  mass-flow-  mass-flow-     time/iter
     1  0.0000e+00  1.0000e+00  1.0000e+00  1.0000e+00  1.7043e+05  1.9320e+07  7.3772e-18  5.0000e+05  8.5317e-14  1.1065e-14  1.1065e-14  0:07:29  499
     2  1.0000e+00  1.0000e+00  1.0000e+00  1.0000e+00  9.3843e-01  9.1973e-01 -9.9215e-17  5.0000e+05  7.3741e-14 -9.9932e-15 -9.9932e-15  0:12:25  498
     3  6.4604e-01  5.7366e-01  5.8338e-01  6.2096e-01  6.3518e-01  1.7157e-01 -1.6711e-16  5.0000e+05  2.7043e-13 -3.9324e-14 -3.9324e-14  0:11:20  497
     4  4.3032e-01  3.5114e-01  3.6135e-01  4.0490e-01  3.8403e-01  6.7765e-02 -1.2664e-16  5.0000e+05  4.9707e-13 -7.1573e-14 -7.1573e-14  0:10:28  496

 Reversed flow on 3 faces (8.3% area) of pressure-inlet 41.
     5  2.8881e-01  2.1268e-01  2.2062e-01  2.6617e-01  3.0318e-01  3.2036e-02 -1.9111e-16  5.0000e+05  8.8815e-13 -1.2548e-13 -1.2548e-13  0:09:46  495

 Reversed flow on 4 faces (12.8% area) of pressure-inlet 41.
     6  2.0491e-01  1.2275e-01  1.2834e-01  1.8083e-01  2.9048e-01  1.7265e-02 -3.1000e-16  5.0000e+05  1.4720e-12 -2.0612e-13 -2.0612e-13  0:09:13  494

 Reversed flow on 7 faces (22.0% area) of pressure-inlet 41.
     7  1.6390e-01  6.6124e-02  6.9469e-02  1.3631e-01  2.2813e-01  1.0308e-02 -4.6391e-16  5.0000e+05  2.2656e-12 -3.1337e-13 -3.1337e-13  0:08:48  493

 Reversed flow on 7 faces (22.0% area) of pressure-inlet 41.
     8  1.4766e-01  3.3650e-02  3.5227e-02  1.1815e-01  1.6083e-01  6.6234e-03 -6.0415e-16  5.0000e+05  3.2765e-12 -4.5084e-13 -4.5084e-13  0:08:26  492

 Reversed flow on 8 faces (22.7% area) of pressure-inlet 41.
     9  1.4142e-01  1.7417e-02  1.8083e-02  1.1161e-01  1.3058e-01  4.5082e-03 -8.3776e-16  5.0000e+05  4.1604e-12 -5.7758e-13 -5.7758e-13  0:08:10  491

 Reversed flow on 11 faces (27.5% area) of pressure-inlet 41.
    10  1.3873e-01  1.3792e-02  1.7451e-02  1.0898e-01  1.0446e-01  3.2265e-03 -1.1901e-15  5.0000e+05  4.2851e-12 -5.8944e-13 -5.8944e-13  0:07:55  490

 Reversed flow on 14 faces (32.7% area) of pressure-inlet 41.
    11  1.3611e-01  1.4918e-02  1.8409e-02  1.0672e-01  9.0417e-02  2.4533e-03 -1.6476e-15  5.0000e+05  3.9768e-12 -2.1816e-13 -2.1816e-13  0:07:54  489

 Reversed flow on 12 faces (28.4% area) of pressure-inlet 41.

  iter  continuity  x-velocity  y-velocity      energy           k       omega      thrust  exit-stati   exit-mach  mass-flow-  mass-flow-     time/iter
    12  1.3270e-01  1.4119e-02  1.4891e-02  1.0399e-01  7.9254e-02  1.9195e-03 -2.3487e-15  5.0000e+05  1.6879e-11  1.1625e-12  1.1625e-12  0:07:43  488

 Reversed flow on 14 faces (32.8% area) of pressure-inlet 41.
    13  1.2936e-01  1.1620e-02  1.0454e-02  1.0136e-01  7.1004e-02  1.5321e-03 -3.2312e-15  5.0000e+05  5.2995e-11  4.8237e-12  4.8237e-12  0:07:34  487

 Reversed flow on 15 faces (33.8% area) of pressure-inlet 41.
    14  1.2662e-01  9.5541e-03  8.1326e-03  9.9224e-02  6.4454e-02  1.2417e-03 -4.4328e-15  5.0000e+05  1.3227e-10  1.3204e-11  1.3204e-11  0:07:31  486

 Reversed flow on 13 faces (28.5% area) of pressure-inlet 41.
    15  1.2437e-01  8.6672e-03  7.4292e-03  9.7462e-02  6.1127e-02  1.0195e-03 -5.9355e-15  5.0000e+05  3.0102e-10  3.1372e-11  3.1372e-11  0:07:20  485

 Reversed flow on 16 faces (34.0% area) of pressure-inlet 41.
    16  1.2242e-01  1.7657e-02  7.2165e-03  9.5933e-02  8.5961e-02  8.4001e-04 -7.6472e-15  5.0000e+05  6.3952e-10  6.8269e-11  6.8269e-11  0:07:14  484

 Reversed flow on 17 faces (39.4% area) of pressure-inlet 41.
    17  1.2069e-01  1.0223e-02  7.1511e-03  9.4570e-02  5.2276e-02  7.1458e-04 -9.1166e-15  5.0000e+05  1.3014e-09  1.4077e-10  1.4077e-10  0:07:07  483

 Reversed flow on 16 faces (34.9% area) of pressure-inlet 41.
    18  1.1912e-01  8.6230e-03  7.0462e-03  9.3319e-02  5.3108e-02  6.0385e-04 -9.4576e-15  5.0000e+05  2.5367e-09  2.7677e-10  2.7677e-10  0:07:03  482

 Reversed flow on 18 faces (37.7% area) of pressure-inlet 41.
    19  1.1768e-01  8.3225e-03  6.9801e-03  9.2182e-02  5.1833e-02  5.3739e-04 -6.8802e-15  5.0000e+05  4.7770e-09  5.2413e-10  5.2413e-10  0:07:00  481

 Reversed flow on 18 faces (37.7% area) of pressure-inlet 41.
    20  1.1637e-01  8.2235e-03  6.9258e-03  9.1142e-02  4.8769e-02  4.7425e-04  2.7781e-15  5.0000e+05  8.7376e-09  9.6197e-10  9.6197e-10  0:06:57  480

 Reversed flow on 12 faces (25.9% area) of pressure-inlet 41.
    21  1.1517e-01  8.1807e-03  6.8817e-03  9.0188e-02  4.8045e-02  4.2333e-04  2.6818e-14  5.0000e+05  1.5609e-08  1.7182e-09  1.7182e-09  0:06:51  479

 Reversed flow on 14 faces (30.7% area) of pressure-inlet 41.
    22  1.1407e-01  8.1589e-03  6.8497e-03  8.9311e-02  4.6419e-02  3.7576e-04  7.9678e-14  5.0000e+05  2.8001e-08  3.0330e-09  3.0330e-09  0:06:51  478

 Reversed flow on 16 faces (35.1% area) of pressure-inlet 41.

  iter  continuity  x-velocity  y-velocity      energy           k       omega      thrust  exit-stati   exit-mach  mass-flow-  mass-flow-     time/iter
    23  1.1306e-01  8.1460e-03  6.8246e-03  8.8509e-02  4.4555e-02  3.3480e-04  1.8752e-13  5.0000e+05  5.2812e-08  5.5640e-09  5.5640e-09  0:06:51  477

 Reversed flow on 18 faces (35.2% area) of pressure-inlet 41.
    24  1.1214e-01  8.1408e-03  6.8022e-03  8.7775e-02  4.2743e-02  3.0579e-04  3.9530e-13  5.0000e+05  1.0224e-07  1.0565e-08  1.0565e-08  0:06:47  476

 Reversed flow on 17 faces (33.4% area) of pressure-inlet 41.
    25  1.1130e-01  8.1439e-03  6.7838e-03  8.7105e-02  4.1131e-02  2.8108e-04  7.8492e-13  5.0000e+05  1.9321e-07  2.0029e-08  2.0029e-08  0:06:45  475

 Reversed flow on 15 faces (35.2% area) of pressure-inlet 41.
    26  1.1054e-01  8.1537e-03  6.7704e-03  8.6492e-02  3.9644e-02  2.6018e-04  1.4844e-12  5.0000e+05  3.4554e-07  3.6588e-08  3.6588e-08  0:07:42  474

 Reversed flow on 19 faces (36.9% area) of pressure-inlet 41.
    27  1.0984e-01  8.1679e-03  6.7626e-03  8.5931e-02  3.8273e-02  2.4357e-04  2.7134e-12  5.0000e+05  5.8106e-07  6.3371e-08  6.3371e-08  0:07:31  473

 Reversed flow on 18 faces (33.0% area) of pressure-inlet 41.
    28  1.0920e-01  8.1871e-03  6.7615e-03  8.5416e-02  3.7034e-02  2.3042e-04  4.8220e-12  5.0000e+05  9.2500e-07  1.0389e-07  1.0389e-07  0:07:19  472

 Reversed flow on 19 faces (36.7% area) of pressure-inlet 41.
    29  1.0861e-01  8.2095e-03  6.7600e-03  8.4945e-02  3.5921e-02  2.2087e-04  8.3518e-12  5.0000e+05  1.4075e-06  1.6217e-07  1.6217e-07  0:07:10  471

 Reversed flow on 15 faces (28.2% area) of pressure-inlet 41.
    30  1.0807e-01  8.2362e-03  6.7590e-03  8.4512e-02  3.4926e-02  2.1446e-04  1.4174e-11  5.0000e+05  2.0657e-06  2.4318e-07  2.4318e-07  0:07:03  470

 Reversed flow on 18 faces (37.3% area) of pressure-inlet 41.
    31  1.0758e-01  1.7248e-02  6.7582e-03  8.4115e-02  4.3554e-02  2.2268e-04  2.3547e-11  5.0000e+05  2.9415e-06  3.5254e-07  3.5254e-07  0:07:02  469

 Reversed flow on 19 faces (37.4% area) of pressure-inlet 41.
    32  1.0715e-01  1.0265e-02  6.7943e-03  8.3761e-02  3.2445e-02  2.5517e-04  3.8298e-11  5.0000e+05  4.0838e-06  4.9685e-07  4.9685e-07  0:07:00  468

 Reversed flow on 18 faces (32.4% area) of pressure-inlet 41.
    33  1.0673e-01  8.7495e-03  6.7656e-03  8.3418e-02  3.2587e-02  2.1734e-04  6.0866e-11  5.0000e+05  5.5459e-06  6.8363e-07  6.8363e-07  0:06:56  467

 Reversed flow on 20 faces (37.8% area) of pressure-inlet 41.

  iter  continuity  x-velocity  y-velocity      energy           k       omega      thrust  exit-stati   exit-mach  mass-flow-  mass-flow-     time/iter
    34  1.0636e-01  8.5146e-03  6.7661e-03  8.3114e-02  3.1994e-02  2.1975e-04  9.4550e-11  5.0000e+05  7.3863e-06  9.2143e-07  9.2143e-07  0:06:57  466

 Reversed flow on 15 faces (28.1% area) of pressure-inlet 41.
    35  1.0603e-01  8.4905e-03  6.7711e-03  8.2842e-02  3.1528e-02  2.3012e-04  1.4482e-10  5.0000e+05  9.6677e-06  1.2198e-06  1.2198e-06  0:06:56  465

 Reversed flow on 18 faces (29.8% area) of pressure-inlet 41.
    36  1.0574e-01  8.5216e-03  6.7740e-03  8.2604e-02  3.1629e-02  2.4494e-04  2.1854e-10  5.0000e+05  1.2458e-05  1.5895e-06  1.5895e-06  0:06:49  464

 Reversed flow on 19 faces (32.9% area) of pressure-inlet 41.
    37  1.0549e-01  8.5800e-03  6.7727e-03  8.2398e-02  3.1816e-02  2.6087e-04  3.2387e-10  5.0000e+05  1.5831e-05  2.0428e-06  2.0428e-06  0:06:49  463

 Reversed flow on 20 faces (33.8% area) of pressure-inlet 41.
    38  1.0529e-01  8.6495e-03  6.7681e-03  8.2227e-02  3.1901e-02  2.8646e-04  4.7450e-10  5.0000e+05  1.9867e-05  2.5935e-06  2.5935e-06  0:06:43  462

 Reversed flow on 16 faces (31.7% area) of pressure-inlet 41.
    39  1.0513e-01  8.7265e-03  6.7618e-03  8.2090e-02  3.2029e-02  3.1916e-04  6.8740e-10  5.0000e+05  2.4663e-05  3.2585e-06  3.2585e-06  0:06:37  461

 Reversed flow on 19 faces (30.2% area) of pressure-inlet 41.
    40  1.0502e-01  8.8096e-03  6.7534e-03  8.1988e-02  3.2224e-02  3.5858e-04  9.8531e-10  5.0000e+05  3.0325e-05  4.0574e-06  4.0574e-06  0:06:33  460

 Reversed flow on 20 faces (34.1% area) of pressure-inlet 41.
    41  1.0495e-01  8.8978e-03  6.7433e-03  8.1922e-02  3.2419e-02  4.0495e-04  1.3961e-09  5.0000e+05  3.6996e-05  5.0157e-06  5.0157e-06  0:06:28  459

 Reversed flow on 18 faces (33.2% area) of pressure-inlet 41.
    42  1.0493e-01  8.9900e-03  6.7316e-03  8.1894e-02  3.2614e-02  4.5918e-04  1.9599e-09  5.0000e+05  4.4853e-05  6.1644e-06  6.1644e-06  0:06:30  458

 Reversed flow on 21 faces (34.2% area) of pressure-inlet 41.
    43  1.0496e-01  9.0864e-03  6.7188e-03  8.1905e-02  3.2779e-02  5.2235e-04  2.7280e-09  5.0000e+05  5.4052e-05  7.5339e-06  7.5339e-06  0:06:26  457

 Reversed flow on 21 faces (37.7% area) of pressure-inlet 41.
    44  1.0504e-01  9.1864e-03  6.7060e-03  8.1958e-02  3.2930e-02  5.9598e-04  3.7690e-09  5.0000e+05  6.4801e-05  9.1620e-06  9.1620e-06  0:06:26  456

 Reversed flow on 21 faces (37.7% area) of pressure-inlet 41.

  iter  continuity  x-velocity  y-velocity      energy           k       omega      thrust  exit-stati   exit-mach  mass-flow-  mass-flow-     time/iter
    45  1.0518e-01  9.2898e-03  6.6941e-03  8.2058e-02  3.3103e-02  6.8250e-04  5.1717e-09  5.0000e+05  7.7403e-05  1.1099e-05  1.1099e-05  0:06:28  455

 Reversed flow on 22 faces (38.6% area) of pressure-inlet 41.
    46  1.0539e-01  9.3967e-03  6.6840e-03  8.2209e-02  3.3308e-02  7.8455e-04  7.0499e-09  5.0000e+05  9.2301e-05  1.3411e-05  1.3411e-05  0:06:28  454

 Reversed flow on 18 faces (32.7% area) of pressure-inlet 41.
    47  1.0567e-01  9.5065e-03  6.6780e-03  8.2422e-02  3.3538e-02  9.0359e-04  9.5552e-09  5.0000e+05  1.1014e-04  1.6190e-05  1.6190e-05  0:06:27  453

 Reversed flow on 23 faces (39.1% area) of pressure-inlet 41.
    48  1.0604e-01  9.6191e-03  6.6773e-03  8.2703e-02  3.3790e-02  1.0427e-03  1.2892e-08  5.0000e+05  1.3184e-04  1.9565e-05  1.9565e-05  0:06:25  452

 Reversed flow on 22 faces (35.6% area) of pressure-inlet 41.
    49  1.0651e-01  1.5315e-02  6.6842e-03  8.3064e-02  3.8278e-02  1.2249e-03  1.7319e-08  5.0000e+05  1.5921e-04  2.3767e-05  2.3767e-05  0:06:22  451

 Reversed flow on 19 faces (30.3% area) of pressure-inlet 41.
    50  1.0711e-01  1.0737e-02  6.7268e-03  8.3525e-02  3.4059e-02  1.4134e-03  2.3174e-08  5.0000e+05  1.9495e-04  2.9193e-05  2.9193e-05  0:06:18  450

 Reversed flow on 20 faces (31.3% area) of pressure-inlet 41.
    51  1.0780e-01  1.0210e-02  6.7352e-03  8.4071e-02  3.4129e-02  1.5954e-03  3.0893e-08  5.0000e+05  2.4311e-04  3.6426e-05  3.6426e-05  0:06:16  449

 Reversed flow on 22 faces (35.6% area) of pressure-inlet 41.
    52  1.0865e-01  1.0179e-02  6.7756e-03  8.4738e-02  3.4331e-02  1.8336e-03  4.1044e-08  5.0000e+05  3.0892e-04  4.6188e-05  4.6188e-05  0:06:19  448

 Reversed flow on 20 faces (30.7% area) of pressure-inlet 41.
    53  1.0966e-01  1.0256e-02  6.8363e-03  8.5532e-02  3.4726e-02  2.1120e-03  5.4365e-08  5.0000e+05  3.9855e-04  5.9289e-05  5.9289e-05  0:06:21  447

 Reversed flow on 22 faces (34.2% area) of pressure-inlet 41.
    54  1.1084e-01  1.0380e-02  6.9153e-03  8.6463e-02  3.5326e-02  2.4305e-03  7.1802e-08  5.0000e+05  5.1978e-04  7.6742e-05  7.6742e-05  0:06:22  446

 Reversed flow on 21 faces (34.4% area) of pressure-inlet 41.
    55  1.1219e-01  1.0528e-02  7.0138e-03  8.7539e-02  3.5684e-02  2.7906e-03  9.4563e-08  5.0000e+05  6.8066e-04  9.9675e-05  9.9675e-05  0:06:23  445

 Reversed flow on 24 faces (40.2% area) of pressure-inlet 41.

  iter  continuity  x-velocity  y-velocity      energy           k       omega      thrust  exit-stati   exit-mach  mass-flow-  mass-flow-     time/iter
    56  1.1375e-01  1.0687e-02  7.1323e-03  8.8774e-02  3.5932e-02  3.1998e-03  1.2421e-07  5.0000e+05  8.9235e-04  1.2964e-04  1.2964e-04  0:06:24  444

 Reversed flow on 23 faces (38.0% area) of pressure-inlet 41.
    57  1.1553e-01  1.0857e-02  7.2723e-03  9.0185e-02  3.6086e-02  3.6542e-03  1.6273e-07  5.0000e+05  1.1683e-03  1.6851e-04  1.6851e-04  0:06:28  443

 Reversed flow on 22 faces (35.5% area) of pressure-inlet 41.
    58  1.1755e-01  1.1038e-02  7.4338e-03  9.1789e-02  3.6206e-02  4.1590e-03  2.1265e-07  5.0000e+05  1.5227e-03  2.1834e-04  2.1834e-04  0:07:20  442

 Reversed flow on 23 faces (38.5% area) of pressure-inlet 41.
    59  1.1983e-01  1.5739e-02  7.6163e-03  9.3603e-02  3.6322e-02  4.7143e-03  2.7725e-07  5.0000e+05  1.9733e-03  2.8183e-04  2.8183e-04  0:07:08  441

 Reversed flow on 23 faces (34.6% area) of pressure-inlet 41.
    60  1.2243e-01  1.2620e-02  7.8488e-03  9.5670e-02  3.6459e-02  5.2953e-03  3.6066e-07  5.0000e+05  2.5431e-03  3.6254e-04  3.6254e-04  0:07:02  440

 Reversed flow on 21 faces (33.7% area) of pressure-inlet 41.
    61  1.2536e-01  1.1825e-02  8.0487e-03  9.8006e-02  3.6605e-02  5.8464e-03  4.6816e-07  5.0000e+05  3.2555e-03  4.6443e-04  4.6443e-04  0:06:55  439

 Reversed flow on 24 faces (35.1% area) of pressure-inlet 41.
    62  1.2874e-01  1.1914e-02  8.2850e-03  1.0070e-01  3.6731e-02  6.3453e-03  6.0655e-07  4.9999e+05  4.1400e-03  5.9227e-04  5.9227e-04  0:06:48  438

 Reversed flow on 24 faces (36.3% area) of pressure-inlet 41.
    63  1.3266e-01  1.2134e-02  8.5377e-03  1.0383e-01  3.6815e-02  6.7872e-03  7.8441e-07  4.9999e+05  5.2296e-03  7.5140e-04  7.5140e-04  0:06:43  437

 Reversed flow on 22 faces (34.2% area) of pressure-inlet 41.
    64  1.3724e-01  1.4340e-02  8.8036e-03  1.0749e-01  3.6828e-02  7.1669e-03  1.0129e-06  4.9998e+05  6.5605e-03  9.4743e-04  9.4743e-04  0:06:43  436

 Reversed flow on 25 faces (36.8% area) of pressure-inlet 41.
    65  1.4266e-01  1.3253e-02  9.0922e-03  1.1182e-01  3.6751e-02  7.4808e-03  1.3061e-06  4.9997e+05  8.1745e-03  1.1874e-03  1.1874e-03  0:06:37  435

 Reversed flow on 25 faces (38.1% area) of pressure-inlet 41.
    66  1.4907e-01  1.2992e-02  9.3655e-03  1.1696e-01  3.6570e-02  7.7273e-03  1.6824e-06  4.9996e+05  1.0118e-02  1.4789e-03  1.4789e-03  0:06:29  434

 Reversed flow on 25 faces (40.6% area) of pressure-inlet 41.

  iter  continuity  x-velocity  y-velocity      energy           k       omega      thrust  exit-stati   exit-mach  mass-flow-  mass-flow-     time/iter
    67  1.5675e-01  1.3192e-02  9.6528e-03  1.2313e-01  3.6277e-02  7.9089e-03  2.1651e-06  4.9994e+05  1.2444e-02  1.8306e-03  1.8306e-03  0:06:25  433

 Reversed flow on 25 faces (38.1% area) of pressure-inlet 41.
    68  1.6595e-01  1.3456e-02  9.9510e-03  1.3051e-01  3.5865e-02  8.0400e-03  2.7832e-06  4.9990e+05  1.5204e-02  2.2513e-03  2.2513e-03  0:06:21  432

 Reversed flow on 27 faces (41.5% area) of pressure-inlet 41.
    69  1.7687e-01  1.3723e-02  1.0253e-02  1.3929e-01  3.5340e-02  8.1223e-03  3.5764e-06  4.9986e+05  1.8458e-02  2.7510e-03  2.7510e-03  0:06:13  431

 Reversed flow on 26 faces (38.6% area) of pressure-inlet 41.
    70  1.8978e-01  1.3990e-02  1.0562e-02  1.4966e-01  3.4705e-02  8.1638e-03  4.5930e-06  4.9979e+05  2.2265e-02  3.3399e-03  3.3399e-03  0:06:07  430

 Reversed flow on 26 faces (37.1% area) of pressure-inlet 41.
    71  2.0501e-01  1.4256e-02  1.0889e-02  1.6189e-01  3.3971e-02  8.1644e-03  5.8939e-06  4.9970e+05  2.6691e-02  4.0290e-03  4.0290e-03  0:06:01  429

 Reversed flow on 24 faces (36.3% area) of pressure-inlet 41.
    72  2.2285e-01  1.4521e-02  1.1246e-02  1.7620e-01  3.3157e-02  8.1475e-03  7.5580e-06  4.9957e+05  3.1796e-02  4.8289e-03  4.8289e-03  0:06:00  428

 Reversed flow on 25 faces (35.4% area) of pressure-inlet 41.
    73  2.4353e-01  1.4774e-02  1.1631e-02  1.9278e-01  3.2266e-02  8.1047e-03  9.6854e-06  4.9939e+05  3.7640e-02  5.7508e-03  5.7508e-03  0:05:58  427

 Reversed flow on 25 faces (36.8% area) of pressure-inlet 41.
    74  2.6736e-01  1.5004e-02  1.2057e-02  2.1187e-01  3.1316e-02  8.0527e-03  1.2410e-05  4.9915e+05  4.4287e-02  6.8052e-03  6.8052e-03  0:05:54  426

 Reversed flow on 27 faces (37.4% area) of pressure-inlet 41.
    75  2.9472e-01  1.5207e-02  1.2552e-02  2.3376e-01  3.0316e-02  7.9914e-03  1.5894e-05  4.9883e+05  5.1792e-02  8.0019e-03  8.0019e-03  0:05:49  425

 Reversed flow on 25 faces (36.8% area) of pressure-inlet 41.
    76  3.2612e-01  1.5426e-02  1.3120e-02  2.5886e-01  2.9285e-02  7.9236e-03  2.0354e-05  4.9841e+05  6.0208e-02  9.3492e-03  9.3492e-03  0:05:48  424

 Reversed flow on 27 faces (39.4% area) of pressure-inlet 41.
    77  3.6211e-01  1.5618e-02  1.3766e-02  2.8761e-01  2.8253e-02  7.8499e-03  2.6083e-05  4.9786e+05  6.9576e-02  1.0855e-02  1.0855e-02  0:05:47  423

 Reversed flow on 25 faces (38.9% area) of pressure-inlet 41.

  iter  continuity  x-velocity  y-velocity      energy           k       omega      thrust  exit-stati   exit-mach  mass-flow-  mass-flow-     time/iter
    78  4.0360e-01  1.6592e-02  1.4527e-02  3.2073e-01  2.9159e-02  7.8018e-03  3.3443e-05  4.9717e+05  7.9934e-02  1.2524e-02  1.2524e-02  0:05:46  422

 Reversed flow on 26 faces (35.6% area) of pressure-inlet 41.
    79  4.5152e-01  1.6177e-02  1.5392e-02  3.5897e-01  2.6382e-02  7.7098e-03  4.2962e-05  4.9629e+05  9.1310e-02  1.4361e-02  1.4361e-02  0:05:42  421

 Reversed flow on 25 faces (38.9% area) of pressure-inlet 41.
    80  5.0565e-01  1.6455e-02  1.6355e-02  4.0213e-01  2.5416e-02  7.6584e-03  5.5374e-05  4.9519e+05  1.0371e-01  1.6365e-02  1.6365e-02  0:05:41  420

 Reversed flow on 27 faces (37.4% area) of pressure-inlet 41.
    81  5.6655e-01  1.6870e-02  1.7415e-02  4.5068e-01  2.4628e-02  7.6052e-03  7.2022e-05  4.9384e+05  1.1714e-01  1.8533e-02  1.8533e-02  0:05:38  419

 Reversed flow on 26 faces (35.6% area) of pressure-inlet 41.
[...]
  3936  2.0389e-03  1.7318e-05  2.7273e-05  1.9587e-03  1.9417e-03  1.9698e-04  3.9237e+01  4.9915e+01  3.3654e+00  5.3678e-05  5.3678e-05  0:00:56   64

 Reversed flow on 47 faces (82.1% area) of pressure-inlet 41.

 absolute pressure limited to 1.000000e+00 in 38368 cells on zone 100 
  3937  1.7138e-03  1.7295e-05  2.7831e-05  1.6320e-03  1.9432e-03  1.9689e-04  3.9237e+01  4.9904e+01  3.3656e+00  5.3673e-05  5.3673e-05  0:00:54   63

 Reversed flow on 44 faces (78.9% area) of pressure-inlet 41.
Absolute pressure limited to 1.000000e+00 in 422013 cells during the last 11 iterations

 absolute pressure limited to 1.000000e+00 in 38368 cells on zone 100 
  3938  1.7623e-03  1.7257e-05  2.7259e-05  1.6810e-03  1.9446e-03  1.9680e-04  3.9237e+01  4.9893e+01  3.3659e+00  5.3668e-05  5.3668e-05  0:00:53   62

 Reversed flow on 48 faces (82.6% area) of pressure-inlet 41.

 absolute pressure limited to 1.000000e+00 in 38369 cells on zone 100 
  3939  1.4330e-03  1.7231e-05  2.7193e-05  1.3466e-03  1.9460e-03  1.9672e-04  3.9237e+01  4.9882e+01  3.3662e+00  5.3662e-05  5.3662e-05  0:00:59   61

 Reversed flow on 42 faces (77.9% area) of pressure-inlet 41.

 absolute pressure limited to 1.000000e+00 in 38370 cells on zone 100 
  3940  2.1777e-03  1.7271e-05  2.7035e-05  2.0976e-03  1.9475e-03  1.9663e-04  3.9237e+01  4.9871e+01  3.3665e+00  5.3657e-05  5.3657e-05  0:00:56   60

 Reversed flow on 48 faces (81.1% area) of pressure-inlet 41.

 absolute pressure limited to 1.000000e+00 in 38371 cells on zone 100 
  3941  1.8253e-03  1.7336e-05  2.7498e-05  1.7445e-03  1.9489e-03  1.9655e-04  3.9237e+01  4.9860e+01  3.3667e+00  5.3652e-05  5.3652e-05  0:00:54   59

 Reversed flow on 45 faces (80.9% area) of pressure-inlet 41.

 absolute pressure limited to 1.000000e+00 in 38372 cells on zone 100 
  3942  1.4886e-03  1.7173e-05  2.6998e-05  1.4036e-03  1.9505e-03  1.9646e-04  3.9237e+01  4.9848e+01  3.3670e+00  5.3646e-05  5.3646e-05  0:00:52   58

 Reversed flow on 46 faces (79.9% area) of pressure-inlet 41.

 absolute pressure limited to 1.000000e+00 in 38372 cells on zone 100 
  3943  1.3532e-03  1.7155e-05  2.7578e-05  1.2649e-03  1.9517e-03  1.9637e-04  3.9237e+01  4.9837e+01  3.3673e+00  5.3641e-05  5.3641e-05  0:00:50   57

 Reversed flow on 43 faces (78.5% area) of pressure-inlet 41.

 absolute pressure limited to 1.000000e+00 in 38373 cells on zone 100 
  3944  2.3618e-03  1.7211e-05  2.7240e-05  2.2813e-03  1.9532e-03  1.9629e-04  3.9237e+01  4.9826e+01  3.3675e+00  5.3636e-05  5.3636e-05  0:00:49   56

 Reversed flow on 47 faces (82.0% area) of pressure-inlet 41.

 absolute pressure limited to 1.000000e+00 in 38373 cells on zone 100 
  3945  1.6764e-03  1.7236e-05  2.7588e-05  1.5944e-03  1.9549e-03  1.9620e-04  3.9237e+01  4.9815e+01  3.3678e+00  5.3630e-05  5.3630e-05  0:00:47   55

 Reversed flow on 46 faces (80.0% area) of pressure-inlet 41.

 absolute pressure limited to 1.000000e+00 in 38376 cells on zone 100 
  3946  1.4087e-03  1.7071e-05  2.6989e-05  1.3220e-03  1.9560e-03  1.9612e-04  3.9237e+01  4.9804e+01  3.3681e+00  5.3625e-05  5.3625e-05  0:00:46   54

 Reversed flow on 44 faces (78.9% area) of pressure-inlet 41.

 absolute pressure limited to 1.000000e+00 in 38377 cells on zone 100 

  iter  continuity  x-velocity  y-velocity      energy           k       omega      thrust  exit-stati   exit-mach  mass-flow-  mass-flow-     time/iter
  3947  1.8927e-03  1.7108e-05  2.7140e-05  1.8124e-03  1.9575e-03  1.9603e-04  3.9237e+01  4.9793e+01  3.3684e+00  5.3620e-05  5.3620e-05  0:00:44   53

 Reversed flow on 46 faces (81.5% area) of pressure-inlet 41.

 absolute pressure limited to 1.000000e+00 in 38378 cells on zone 100 
  3948  1.4631e-03  1.7058e-05  2.7474e-05  1.3778e-03  1.9592e-03  1.9594e-04  3.9237e+01  4.9782e+01  3.3686e+00  5.3615e-05  5.3615e-05  0:00:43   52

 Reversed flow on 46 faces (80.0% area) of pressure-inlet 41.
Absolute pressure limited to 1.000000e+00 in 422125 cells during the last 11 iterations

 absolute pressure limited to 1.000000e+00 in 38381 cells on zone 100 
  3949  2.0877e-03  1.7034e-05  2.7110e-05  2.0079e-03  1.9603e-03  1.9586e-04  3.9237e+01  4.9771e+01  3.3689e+00  5.3609e-05  5.3609e-05  0:00:41   51

 Reversed flow on 43 faces (78.4% area) of pressure-inlet 41.

 absolute pressure limited to 1.000000e+00 in 38381 cells on zone 100 
  3950  2.0187e-03  1.7065e-05  2.7651e-05  1.9389e-03  1.9617e-03  1.9577e-04  3.9237e+01  4.9760e+01  3.3692e+00  5.3604e-05  5.3604e-05  0:00:40   50

 Reversed flow on 47 faces (80.5% area) of pressure-inlet 41.

 absolute pressure limited to 1.000000e+00 in 38383 cells on zone 100 
  3951  1.5859e-03  1.7051e-05  2.7234e-05  1.5028e-03  1.9632e-03  1.9569e-04  3.9237e+01  4.9749e+01  3.3695e+00  5.3599e-05  5.3599e-05  0:00:39   49

 Reversed flow on 45 faces (80.9% area) of pressure-inlet 41.

 absolute pressure limited to 1.000000e+00 in 38384 cells on zone 100 
  3952  1.4349e-03  1.6966e-05  2.6869e-05  1.3490e-03  1.9650e-03  1.9560e-04  3.9237e+01  4.9739e+01  3.3697e+00  5.3593e-05  5.3593e-05  0:00:39   48

 Reversed flow on 48 faces (81.1% area) of pressure-inlet 41.

 absolute pressure limited to 1.000000e+00 in 38384 cells on zone 100 
  3953  1.5343e-03  1.6948e-05  2.7378e-05  1.4505e-03  1.9660e-03  1.9551e-04  3.9237e+01  4.9728e+01  3.3700e+00  5.3588e-05  5.3588e-05  0:00:38   47

 Reversed flow on 42 faces (77.9% area) of pressure-inlet 41.

 absolute pressure limited to 1.000000e+00 in 38385 cells on zone 100 
  3954  2.3959e-03  1.7026e-05  2.6895e-05  2.3154e-03  1.9675e-03  1.9543e-04  3.9237e+01  4.9717e+01  3.3703e+00  5.3583e-05  5.3583e-05  0:00:36   46

 Reversed flow on 46 faces (79.9% area) of pressure-inlet 41.

 absolute pressure limited to 1.000000e+00 in 38387 cells on zone 100 
  3955  1.6696e-03  1.7063e-05  2.7744e-05  1.5877e-03  1.9689e-03  1.9534e-04  3.9237e+01  4.9706e+01  3.3705e+00  5.3578e-05  5.3578e-05  0:00:36   45

 Reversed flow on 46 faces (80.0% area) of pressure-inlet 41.

 absolute pressure limited to 1.000000e+00 in 38391 cells on zone 100 
  3956  1.4385e-03  1.6860e-05  2.7000e-05  1.3528e-03  1.9703e-03  1.9526e-04  3.9237e+01  4.9695e+01  3.3708e+00  5.3572e-05  5.3572e-05  0:00:35   44

 Reversed flow on 43 faces (78.4% area) of pressure-inlet 41.

 absolute pressure limited to 1.000000e+00 in 38392 cells on zone 100 
  3957  1.7988e-03  1.6892e-05  2.7048e-05  1.7181e-03  1.9717e-03  1.9517e-04  3.9237e+01  4.9684e+01  3.3711e+00  5.3567e-05  5.3567e-05  0:00:34   43

 Reversed flow on 47 faces (80.5% area) of pressure-inlet 41.

 absolute pressure limited to 1.000000e+00 in 38391 cells on zone 100 

  iter  continuity  x-velocity  y-velocity      energy           k       omega      thrust  exit-stati   exit-mach  mass-flow-  mass-flow-     time/iter
  3958  1.6352e-03  1.6892e-05  2.7374e-05  1.5530e-03  1.9731e-03  1.9509e-04  3.9237e+01  4.9673e+01  3.3714e+00  5.3562e-05  5.3562e-05  0:00:33   42

 Reversed flow on 45 faces (80.9% area) of pressure-inlet 41.

 absolute pressure limited to 1.000000e+00 in 38391 cells on zone 100 
  3959  1.3588e-03  1.6818e-05  2.6757e-05  1.2711e-03  1.9751e-03  1.9500e-04  3.9237e+01  4.9662e+01  3.3716e+00  5.3557e-05  5.3557e-05  0:00:33   41

 Reversed flow on 44 faces (79.0% area) of pressure-inlet 41.
Absolute pressure limited to 1.000000e+00 in 422276 cells during the last 11 iterations

 absolute pressure limited to 1.000000e+00 in 38392 cells on zone 100 
  3960  2.5699e-03  1.6821e-05  2.7096e-05  2.4886e-03  1.9759e-03  1.9492e-04  3.9237e+01  4.9651e+01  3.3719e+00  5.3551e-05  5.3551e-05  0:00:32   40

 Reversed flow on 47 faces (80.5% area) of pressure-inlet 41.

 absolute pressure limited to 1.000000e+00 in 38393 cells on zone 100 
  3961  1.5984e-03  1.6857e-05  2.8317e-05  1.5158e-03  1.9773e-03  1.9483e-04  3.9237e+01  4.9640e+01  3.3722e+00  5.3546e-05  5.3546e-05  0:00:31   39

 Reversed flow on 44 faces (78.8% area) of pressure-inlet 41.

 absolute pressure limited to 1.000000e+00 in 38394 cells on zone 100 
  3962  1.5996e-03  1.6765e-05  2.7008e-05  1.5171e-03  1.9787e-03  1.9475e-04  3.9237e+01  4.9629e+01  3.3724e+00  5.3541e-05  5.3541e-05  0:00:30   38

 Reversed flow on 48 faces (81.1% area) of pressure-inlet 41.

 absolute pressure limited to 1.000000e+00 in 38394 cells on zone 100 
  3963  1.4200e-03  1.6726e-05  2.7216e-05  1.3341e-03  1.9802e-03  1.9466e-04  3.9237e+01  4.9618e+01  3.3727e+00  5.3536e-05  5.3536e-05  0:00:29   37

 Reversed flow on 42 faces (77.9% area) of pressure-inlet 41.

 absolute pressure limited to 1.000000e+00 in 38394 cells on zone 100 
  3964  2.2780e-03  1.6796e-05  2.6890e-05  2.1982e-03  1.9817e-03  1.9458e-04  3.9237e+01  4.9608e+01  3.3730e+00  5.3530e-05  5.3530e-05  0:00:28   36

 Reversed flow on 46 faces (79.9% area) of pressure-inlet 41.

 absolute pressure limited to 1.000000e+00 in 38394 cells on zone 100 
  3965  1.6193e-03  1.6813e-05  2.7282e-05  1.5371e-03  1.9830e-03  1.9449e-04  3.9237e+01  4.9597e+01  3.3733e+00  5.3525e-05  5.3525e-05  0:00:28   35

 Reversed flow on 46 faces (80.0% area) of pressure-inlet 41.

 absolute pressure limited to 1.000000e+00 in 38394 cells on zone 100 
  3966  1.4260e-03  1.6622e-05  2.6770e-05  1.3402e-03  1.9844e-03  1.9441e-04  3.9237e+01  4.9586e+01  3.3735e+00  5.3520e-05  5.3520e-05  0:00:27   34

 Reversed flow on 44 faces (78.9% area) of pressure-inlet 41.

 absolute pressure limited to 1.000000e+00 in 38395 cells on zone 100 
  3967  1.8983e-03  1.6652e-05  2.6919e-05  1.8185e-03  1.9859e-03  1.9432e-04  3.9237e+01  4.9575e+01  3.3738e+00  5.3515e-05  5.3515e-05  0:00:27   33

 Reversed flow on 47 faces (80.5% area) of pressure-inlet 41.

 absolute pressure limited to 1.000000e+00 in 38396 cells on zone 100 
  3968  1.4323e-03  1.6613e-05  2.7309e-05  1.3468e-03  1.9872e-03  1.9424e-04  3.9237e+01  4.9564e+01  3.3741e+00  5.3510e-05  5.3510e-05  0:00:26   32

 Reversed flow on 42 faces (77.9% area) of pressure-inlet 41.

 absolute pressure limited to 1.000000e+00 in 38396 cells on zone 100 

  iter  continuity  x-velocity  y-velocity      energy           k       omega      thrust  exit-stati   exit-mach  mass-flow-  mass-flow-     time/iter
  3969  2.2574e-03  1.6624e-05  2.6651e-05  2.1777e-03  1.9887e-03  1.9415e-04  3.9237e+01  4.9553e+01  3.3743e+00  5.3504e-05  5.3504e-05  0:00:25   31

 Reversed flow on 46 faces (79.9% area) of pressure-inlet 41.

 absolute pressure limited to 1.000000e+00 in 38396 cells on zone 100 
  3970  1.7030e-03  1.6686e-05  2.7464e-05  1.6219e-03  1.9900e-03  1.9407e-04  3.9237e+01  4.9542e+01  3.3746e+00  5.3499e-05  5.3499e-05  0:00:28   30

 Reversed flow on 46 faces (80.0% area) of pressure-inlet 41.
Absolute pressure limited to 1.000000e+00 in 422346 cells during the last 11 iterations

 absolute pressure limited to 1.000000e+00 in 38396 cells on zone 100 
  3971  1.4828e-03  1.6500e-05  2.6714e-05  1.3985e-03  1.9914e-03  1.9398e-04  3.9237e+01  4.9532e+01  3.3749e+00  5.3494e-05  5.3494e-05  0:00:26   29

 Reversed flow on 43 faces (78.4% area) of pressure-inlet 41.

 absolute pressure limited to 1.000000e+00 in 38396 cells on zone 100 
  3972  1.7019e-03  1.6541e-05  2.7062e-05  1.6208e-03  1.9928e-03  1.9390e-04  3.9237e+01  4.9521e+01  3.3752e+00  5.3489e-05  5.3489e-05  0:00:25   28

 Reversed flow on 47 faces (80.5% area) of pressure-inlet 41.

 absolute pressure limited to 1.000000e+00 in 38396 cells on zone 100 
  3973  1.5716e-03  1.6509e-05  2.7187e-05  1.4890e-03  1.9942e-03  1.9381e-04  3.9237e+01  4.9510e+01  3.3754e+00  5.3483e-05  5.3483e-05  0:00:24   27

 Reversed flow on 43 faces (78.4% area) of pressure-inlet 41.

 absolute pressure limited to 1.000000e+00 in 38396 cells on zone 100 
  3974  2.0241e-03  1.6477e-05  2.6583e-05  1.9447e-03  1.9956e-03  1.9373e-04  3.9237e+01  4.9499e+01  3.3757e+00  5.3478e-05  5.3478e-05  0:00:22   26

 Reversed flow on 46 faces (79.9% area) of pressure-inlet 41.

 absolute pressure limited to 1.000000e+00 in 38396 cells on zone 100 
  3975  1.5438e-03  1.6448e-05  2.6994e-05  1.4607e-03  1.9970e-03  1.9365e-04  3.9237e+01  4.9488e+01  3.3760e+00  5.3473e-05  5.3473e-05  0:00:21   25

 Reversed flow on 43 faces (78.4% area) of pressure-inlet 41.

 absolute pressure limited to 1.000000e+00 in 38397 cells on zone 100 
  3976  1.8099e-03  1.6405e-05  2.6718e-05  1.7298e-03  1.9984e-03  1.9356e-04  3.9237e+01  4.9478e+01  3.3762e+00  5.3468e-05  5.3468e-05  0:00:20   24

 Reversed flow on 47 faces (78.9% area) of pressure-inlet 41.

 absolute pressure limited to 1.000000e+00 in 38397 cells on zone 100 
  3977  1.6755e-03  1.6414e-05  2.7066e-05  1.5943e-03  2.0011e-03  1.9348e-04  3.9237e+01  4.9467e+01  3.3765e+00  5.3463e-05  5.3463e-05  0:00:20   23

 Reversed flow on 44 faces (78.8% area) of pressure-inlet 41.

 absolute pressure limited to 1.000000e+00 in 38399 cells on zone 100 
  3978  1.2715e-03  1.6353e-05  2.6538e-05  1.1817e-03  2.0014e-03  1.9339e-04  3.9237e+01  4.9456e+01  3.3768e+00  5.3457e-05  5.3457e-05  0:00:19   22

 Reversed flow on 44 faces (79.0% area) of pressure-inlet 41.

 absolute pressure limited to 1.000000e+00 in 38399 cells on zone 100 
  3979  2.4011e-03  1.6337e-05  2.6773e-05  2.3211e-03  2.0028e-03  1.9331e-04  3.9237e+01  4.9445e+01  3.3770e+00  5.3452e-05  5.3452e-05  0:00:18   21

 Reversed flow on 45 faces (79.4% area) of pressure-inlet 41.

 absolute pressure limited to 1.000000e+00 in 38400 cells on zone 100 

  iter  continuity  x-velocity  y-velocity      energy           k       omega      thrust  exit-stati   exit-mach  mass-flow-  mass-flow-     time/iter
  3980  1.4533e-03  1.6348e-05  2.7827e-05  1.3686e-03  2.0040e-03  1.9322e-04  3.9237e+01  4.9435e+01  3.3773e+00  5.3447e-05  5.3447e-05  0:00:18   20

 Reversed flow on 46 faces (80.0% area) of pressure-inlet 41.

 absolute pressure limited to 1.000000e+00 in 38400 cells on zone 100 
  3981  1.6212e-03  1.6243e-05  2.6701e-05  1.5394e-03  2.0054e-03  1.9314e-04  3.9237e+01  4.9424e+01  3.3776e+00  5.3442e-05  5.3442e-05  0:00:17   19

 Reversed flow on 43 faces (78.4% area) of pressure-inlet 41.
Absolute pressure limited to 1.000000e+00 in 422383 cells during the last 11 iterations

 absolute pressure limited to 1.000000e+00 in 38399 cells on zone 100 
  3982  1.6025e-03  1.6238e-05  2.6890e-05  1.5204e-03  2.0067e-03  1.9305e-04  3.9237e+01  4.9413e+01  3.3778e+00  5.3437e-05  5.3437e-05  0:00:16   18

 Reversed flow on 45 faces (77.7% area) of pressure-inlet 41.

 absolute pressure limited to 1.000000e+00 in 38402 cells on zone 100 
  3983  1.5442e-03  1.6251e-05  2.7147e-05  1.4613e-03  2.0091e-03  1.9297e-04  3.9237e+01  4.9402e+01  3.3781e+00  5.3432e-05  5.3432e-05  0:00:16   17

 Reversed flow on 46 faces (80.0% area) of pressure-inlet 41.

 absolute pressure limited to 1.000000e+00 in 38402 cells on zone 100 
  3984  1.3328e-03  1.6161e-05  2.6468e-05  1.2452e-03  2.0096e-03  1.9288e-04  3.9237e+01  4.9392e+01  3.3784e+00  5.3426e-05  5.3426e-05  0:00:15   16

 Reversed flow on 42 faces (77.9% area) of pressure-inlet 41.

 absolute pressure limited to 1.000000e+00 in 38401 cells on zone 100 
  3985  2.2908e-03  1.6217e-05  2.6776e-05  2.2113e-03  2.0110e-03  1.9280e-04  3.9237e+01  4.9381e+01  3.3787e+00  5.3421e-05  5.3421e-05  0:00:14   15

 Reversed flow on 51 faces (83.3% area) of pressure-inlet 41.

 absolute pressure limited to 1.000000e+00 in 38401 cells on zone 100 
  3986  1.9138e-03  1.6303e-05  2.7116e-05  1.8344e-03  2.0125e-03  1.9272e-04  3.9237e+01  4.9370e+01  3.3789e+00  5.3416e-05  5.3416e-05  0:00:13   14

 Reversed flow on 43 faces (76.6% area) of pressure-inlet 41.

 absolute pressure limited to 1.000000e+00 in 38401 cells on zone 100 
  3987  1.3803e-03  1.6107e-05  2.6458e-05  1.2941e-03  2.0147e-03  1.9263e-04  3.9237e+01  4.9360e+01  3.3792e+00  5.3411e-05  5.3411e-05  0:00:12   13

 Reversed flow on 46 faces (79.9% area) of pressure-inlet 41.

 absolute pressure limited to 1.000000e+00 in 38402 cells on zone 100 
  3988  1.3125e-03  1.6047e-05  2.6741e-05  1.2244e-03  2.0153e-03  1.9255e-04  3.9237e+01  4.9349e+01  3.3795e+00  5.3406e-05  5.3406e-05  0:00:11   12

 Reversed flow on 42 faces (77.9% area) of pressure-inlet 41.

 absolute pressure limited to 1.000000e+00 in 38402 cells on zone 100 
  3989  2.2039e-03  1.6118e-05  2.6595e-05  2.1247e-03  2.0166e-03  1.9246e-04  3.9237e+01  4.9338e+01  3.3797e+00  5.3401e-05  5.3401e-05  0:00:10   11

 Reversed flow on 49 faces (80.2% area) of pressure-inlet 41.

 absolute pressure limited to 1.000000e+00 in 38402 cells on zone 100 
  3990  1.8633e-03  1.6166e-05  2.6926e-05  1.7838e-03  2.0189e-03  1.9238e-04  3.9237e+01  4.9328e+01  3.3800e+00  5.3395e-05  5.3395e-05  0:00:09   10

 Reversed flow on 45 faces (79.4% area) of pressure-inlet 41.

 absolute pressure limited to 1.000000e+00 in 38402 cells on zone 100 

  iter  continuity  x-velocity  y-velocity      energy           k       omega      thrust  exit-stati   exit-mach  mass-flow-  mass-flow-     time/iter
  3991  1.2735e-03  1.5976e-05  2.6352e-05  1.1843e-03  2.0195e-03  1.9230e-04  3.9237e+01  4.9317e+01  3.3803e+00  5.3390e-05  5.3390e-05  0:00:08    9

 Reversed flow on 44 faces (78.9% area) of pressure-inlet 41.

 absolute pressure limited to 1.000000e+00 in 38402 cells on zone 100 
  3992  1.7446e-03  1.5984e-05  2.6576e-05  1.6644e-03  2.0208e-03  1.9221e-04  3.9237e+01  4.9306e+01  3.3805e+00  5.3385e-05  5.3385e-05  0:00:07    8

 Reversed flow on 47 faces (78.9% area) of pressure-inlet 41.
Absolute pressure limited to 1.000000e+00 in 422421 cells during the last 11 iterations

 absolute pressure limited to 1.000000e+00 in 38402 cells on zone 100 
  3993  1.4705e-03  1.5935e-05  2.6849e-05  1.3866e-03  2.0229e-03  1.9213e-04  3.9237e+01  4.9296e+01  3.3808e+00  5.3380e-05  5.3380e-05  0:00:06    7

 Reversed flow on 42 faces (77.9% area) of pressure-inlet 41.

 absolute pressure limited to 1.000000e+00 in 38402 cells on zone 100 
  3994  2.1667e-03  1.5949e-05  2.6372e-05  2.0877e-03  2.0238e-03  1.9205e-04  3.9237e+01  4.9285e+01  3.3811e+00  5.3375e-05  5.3375e-05  0:00:06    6

 Reversed flow on 49 faces (80.2% area) of pressure-inlet 41.

 absolute pressure limited to 1.000000e+00 in 38402 cells on zone 100 
  3995  1.8464e-03  1.6014e-05  2.6957e-05  1.7670e-03  2.0256e-03  1.9196e-04  3.9237e+01  4.9274e+01  3.3813e+00  5.3370e-05  5.3370e-05  0:00:05    5

 Reversed flow on 45 faces (79.4% area) of pressure-inlet 41.

 absolute pressure limited to 1.000000e+00 in 38402 cells on zone 100 
  3996  1.3525e-03  1.5839e-05  2.6315e-05  1.2659e-03  2.0266e-03  1.9188e-04  3.9237e+01  4.9264e+01  3.3816e+00  5.3365e-05  5.3365e-05  0:00:04    4

 Reversed flow on 44 faces (78.9% area) of pressure-inlet 41.

 absolute pressure limited to 1.000000e+00 in 38404 cells on zone 100 
  3997  1.7054e-03  1.5847e-05  2.6735e-05  1.6250e-03  2.0278e-03  1.9180e-04  3.9237e+01  4.9253e+01  3.3819e+00  5.3359e-05  5.3359e-05  0:00:03    3

 Reversed flow on 48 faces (79.5% area) of pressure-inlet 41.

 absolute pressure limited to 1.000000e+00 in 38404 cells on zone 100 
  3998  1.5220e-03  1.5807e-05  2.6719e-05  1.4393e-03  2.0297e-03  1.9171e-04  3.9237e+01  4.9242e+01  3.3821e+00  5.3354e-05  5.3354e-05  0:00:02    2

 Reversed flow on 43 faces (78.4% area) of pressure-inlet 41.

 absolute pressure limited to 1.000000e+00 in 38404 cells on zone 100 
  3999  2.0419e-03  1.5793e-05  2.6226e-05  1.9631e-03  2.0308e-03  1.9163e-04  3.9237e+01  4.9232e+01  3.3824e+00  5.3349e-05  5.3349e-05  0:00:01    1

 Reversed flow on 50 faces (81.0% area) of pressure-inlet 41.

 absolute pressure limited to 1.000000e+00 in 38404 cells on zone 100 
  4000  1.6993e-03  1.5781e-05  2.6694e-05  1.6190e-03  2.0326e-03  1.9155e-04  3.9237e+01  4.9221e+01  3.3827e+00  5.3344e-05  5.3344e-05  0:00:00    0

Calculation complete.
