Auto-Transcript Start Time:  20:29:01, 17 Jul 2026 South Africa Standard Time 
Current Directory: "C:\Users\Simon\Projects\MEng Electronics\Development of a Resistojet Thruster\2) Simulations\CFD"

              Welcome to ANSYS Fluent 2026 R1

              Copyright 2026 Synopsys, Inc. and ANSYS, Inc. All rights reserved.
              Unauthorized use, distribution or duplication is prohibited.
              This product is subject to U.S. laws governing export and re-export.
              For full Legal Notice, see documentation.

Build Time: Feb  2 2026 16:27:16 EST  Build Id: 10262  
 
Connected License Server List:	<Non FlexNet Publisher License Server (FNPLS)>

     --------------------------------------------------------------
     This is a student version of ANSYS FLUENT. Usage of this product
     license is limited to the terms and conditions specified in your ANSYS
     license form, additional terms section.
     --------------------------------------------------------------
Host spawning Node 0 on machine "SimonAsusLaptop" (win64).
Host waiting for connection from Node 0 at 127.0.0.1:54019 

Node 0 connecting to the Host ... connection established.

------------------------------------------------------------------------------------------
ID    Hostname         Core  O.S.         PID    CPU Model Name                          
------------------------------------------------------------------------------------------
n3    SimonAsusLaptop  4/20  Windows-x64  27552  12th Gen Intel(R) Core(TM) i7-12700H    
n2    SimonAsusLaptop  3/20  Windows-x64  35436  12th Gen Intel(R) Core(TM) i7-12700H    
n1    SimonAsusLaptop  2/20  Windows-x64  22224  12th Gen Intel(R) Core(TM) i7-12700H    
n0*   SimonAsusLaptop  1/20  Windows-x64  25424  12th Gen Intel(R) Core(TM) i7-12700H    
host  SimonAsusLaptop        Windows-x64  1988   12th Gen Intel(R) Core(TM) i7-12700H    

MPI Option Selected: intel
Selected system interconnect: default
------------------------------------------------------------------------------------------

Cleanup script file is C:\\Users\\Simon\\Projects\\MEng Electronics\\Development of a Resistojet Thruster\\2) Simulations\\CFD\\cleanup-fluent-SimonAsusLaptop-1988.bat
Note: Rank = 0: Process affinity not being set (6).
Note: Rank = 1: Process affinity not being set (6).
Note: Rank = 2: Process affinity not being set (6).
Note: Rank = 3: Process affinity not being set (6).

Graphics driver currently in use: dx11


Posting ANSYS Product Improvement Program startup data
Done.

> (cx-gui-do cx-activate-item "MenuBar*ReadSubMenu*Case & Data...")
(cx-gui-do cx-set-file-dialog-entries "Select File" '( "C:/Users/Simon/Projects/MEng Electronics/Development of a Resistojet Thruster/2) Simulations/CFD/2D Nozzle Simulation/2DNozzle_2_2000.cas.h5") "CFF Case Files (*.cas.h5 )")
Fast-loading "C:\PROGRA~1\ANSYSI~1\ANSYSS~1\v261\fluent\fluent26.1.0\\addons\afd\lib\hdfio.bin"
Done.

Reading from SimonAsusLaptop:"C:/Users/Simon/Projects/MEng Electronics/Development of a Resistojet Thruster/2) Simulations/CFD/2D Nozzle Simulation/2DNozzle_2_2000.cas.h5" in NODE0 mode ...
  Reading mesh ...
      234568 cells,     2 cell zones ...
         187566 mixed cells,  zone id: 94
          47002 mixed cells,  zone id: 100
      470119 faces,    10 face zones ...
            400 2D axis faces,  zone id: 1
             63 2D pressure-inlet faces,  zone id: 41
             62 2D interior faces,  zone id: 43
           3775 2D wall faces,  zone id: 44
           2149 2D wall faces,  zone id: 46
            431 2D axis faces,  zone id: 47
            641 2D pressure-outlet faces,  zone id: 50
            144 2D wall faces,  zone id: 52
         369151 2D interior faces,  zone id: 501
          93303 2D interior faces,  zone id: 502
      235552 nodes,     1 node zone  ...
  Done.


Building...
     mesh
	distributing mesh
		parts....,
		faces....,
		nodes....,
		cells....,
        bandwidth reduction using Reverse Cuthill-McKee: 59174/950 = 62.2884
     materials,
     interface,
     domains,
	mixture
     zones,
	axis-1
	interior:fluid
	interior:vacuum
	inlet
	outlet
	divergingside
	convergingside
	axis
	vacuumboundaries
	outsidewall
	fluid
	vacuum
     parallel,
Done.

Reading from SimonAsusLaptop:"C:/Users/Simon/Projects/MEng Electronics/Development of a Resistojet Thruster/2) Simulations/CFD/2D Nozzle Simulation/2DNozzle_2_2000.dat.h5" in NODE0 mode ...


  Reading results.
Parallel variables...
Done.
(cx-use-window-id 51)
(build-popup-menu)
(cx-gui-do cx-activate-item "MenuBar*DisplaySubMenu*velocity-contour")
(cx-use-window-id 51)
(cxg-clear-all-selections (cx-active-window))
(cxg-add-surfaces-to-selection '(vacuum) (cx-active-window))
(cx-use-window-id 51)
(build-popup-menu)
(cx-gui-do cx-set-list-tree-selections "NavigationPane*Frame2*Table1*List_Tree2" (list "Results|Surfaces"))
(cx-gui-do cx-set-list-tree-selections "NavigationPane*Frame2*Table1*List_Tree2" (list "Results|Surfaces"))
(cx-gui-do cx-set-list-tree-selections "NavigationPane*Frame2*Table1*List_Tree2" (list "Results|Surfaces"))
(cx-gui-do cx-activate-item "NavigationPane*Frame2*Table1*List_Tree2")
(cx-gui-do cx-set-list-tree-selections "NavigationPane*Frame2*Table1*List_Tree2" (list "Results|Surfaces"))
(cx-gui-do cx-activate-item "Surfaces*PanelButtons*PushButton2(Cancel)")
(cx-gui-do cx-set-list-tree-selections "NavigationPane*Frame2*Table1*List_Tree2" (list "Results|Surfaces"))
(cx-gui-do cx-list-tree-right-click "NavigationPane*Frame2*Table1*List_Tree2" )
(cx-gui-do cx-activate-item "MenuBar*NewSubMenu*Iso-Surface...")
(cx-gui-do cx-set-text-entry "Iso-Surface*Table1*Table1*TextEntry1(New Surface Name)" "v_0")
(cx-gui-do cx-set-list-selections "Iso-Surface*Table1*Table1*DropDownList2(Surface of Constant)" '( 2))
(cx-gui-do cx-activate-item "Iso-Surface*Table1*Table1*DropDownList2(Surface of Constant)")
(cx-gui-do cx-set-list-selections "Iso-Surface*Table1*Table1*DropDownList3" '( 0))
(cx-gui-do cx-activate-item "Iso-Surface*Table1*Table1*DropDownList3")
(cx-gui-do cx-activate-item "Iso-Surface*Table1*Table1*Table5*PushButton3(Compute)")
(cx-gui-do cx-set-list-selections "Iso-Surface*Table1*Table2*List1(From Surface)" '( 0 1 4 21 5 6 7 15 8 9 10 11 12 13 14 17 18 19 20 22 2 3 16))
(cx-gui-do cx-activate-item "Iso-Surface*Table1*Table2*List1(From Surface)")
(cx-gui-do cx-set-list-selections "Iso-Surface*Table1*Table2*List1(From Surface)" '( 0 1 4 21 5 6 7 15 8 9 10 11 12 13 14 17 18 19 20 22 2 3 16))
(cx-gui-do cx-activate-item "Iso-Surface*Table1*Table2*List1(From Surface)")
(cx-gui-do cx-set-list-selections "Iso-Surface*Table1*Table2*List1(From Surface)" '( 0 1 4 21 5 6 7 15 8 9 10 11 12 13 14 17 18 19 20 22 2 3 16))
(cx-gui-do cx-activate-item "Iso-Surface*Table1*Table2*List1(From Surface)")
(cx-gui-do cx-set-list-selections "Iso-Surface*Table1*Table2*List2(From Zones)" '( 0))
(cx-gui-do cx-activate-item "Iso-Surface*Table1*Table2*List2(From Zones)")
(cx-gui-do cx-set-list-selections "Iso-Surface*Table1*Table2*List2(From Zones)" '( 0 1))
(cx-gui-do cx-activate-item "Iso-Surface*Table1*Table2*List2(From Zones)")
(cx-gui-do cx-activate-item "Iso-Surface*Table1*Table1*Table5*PushButton3(Compute)")
(cx-gui-do cx-activate-item "Iso-Surface*Table1*Table1*Table5*PushButton3(Compute)")
(cx-gui-do cx-set-list-selections "Iso-Surface*Table1*Table1*DropDownList3" '( 1))
(cx-gui-do cx-activate-item "Iso-Surface*Table1*Table1*DropDownList3")
(cx-gui-do cx-activate-item "Iso-Surface*Table1*Table1*Table5*PushButton3(Compute)")
(cx-gui-do cx-activate-item "Iso-Surface*PanelButtons*PushButton1(OK)")
(cx-gui-do cx-activate-item "Iso-Surface*PanelButtons*PushButton2(Cancel)")
(cx-use-window-id 51)
(cx-use-window-id 51)
(build-popup-menu)
(cx-gui-do cx-set-list-tree-selections "NavigationPane*Frame2*Table1*List_Tree2" (list "Results|Graphics|Contours|velocity-contour"))
(cx-gui-do cx-set-list-tree-selections "NavigationPane*Frame2*Table1*List_Tree2" (list "Results|Graphics|Contours|velocity-contour"))
(cx-gui-do cx-activate-item "NavigationPane*Frame2*Table1*List_Tree2")
(cx-gui-do cx-set-list-tree-selections "NavigationPane*Frame2*Table1*List_Tree2" (list "Results|Graphics|Contours|velocity-contour"))
(cx-gui-do cx-set-list-selections "Contours*Table1*Frame3*Frame2*List2(Surfaces)" '( 4 22 21))
(cx-gui-do cx-activate-item "Contours*Table1*Frame3*Frame2*List2(Surfaces)")
(cx-gui-do cx-activate-item "Contours*PanelButtons*PushButton1(OK)")
(cxg-clear-all-selections (cx-active-window))
(cxg-add-surfaces-to-selection '() (cx-active-window))
(cx-gui-do cx-activate-item "Contours*PanelButtons*PushButton1(OK)")
(cx-gui-do cx-set-list-selections "Contours*Table1*Frame3*Frame2*List2(Surfaces)" '( 21))
(cx-gui-do cx-activate-item "Contours*Table1*Frame3*Frame2*List2(Surfaces)")
(cx-gui-do cx-activate-item "Contours*PanelButtons*PushButton1(OK)")
(cx-gui-do cx-set-list-selections "Contours*Table1*Frame3*Frame2*List2(Surfaces)" '( 21 4))
(cx-gui-do cx-activate-item "Contours*Table1*Frame3*Frame2*List2(Surfaces)")
(cx-gui-do cx-set-list-selections "Contours*Table1*Frame3*Frame2*List2(Surfaces)" '( 21 4 22))
(cx-gui-do cx-activate-item "Contours*Table1*Frame3*Frame2*List2(Surfaces)")
(cx-gui-do cx-activate-item "Contours*PanelButtons*PushButton4(Compute)")
(cx-gui-do cx-activate-item "Contours*PanelButtons*PushButton1(OK)")
(cx-gui-do cx-activate-item "Contours*PanelButtons*PushButton2(Cancel)")
(cx-gui-do cx-set-list-tree-selections "NavigationPane*Frame2*Table1*List_Tree2" (list "Results|Graphics|Contours|velocity-contour"))
(cx-gui-do cx-set-list-tree-selections "NavigationPane*Frame2*Table1*List_Tree2" (list "Results|Graphics|Contours|velocity-contour"))
(cx-gui-do cx-activate-item "NavigationPane*Frame2*Table1*List_Tree2")
(cx-gui-do cx-set-list-tree-selections "NavigationPane*Frame2*Table1*List_Tree2" (list "Results|Graphics|Contours|velocity-contour"))
(cx-gui-do cx-activate-item "Contours*PanelButtons*PushButton2(Cancel)")
(cx-gui-do cx-set-list-tree-selections "NavigationPane*Frame2*Table1*List_Tree2" (list "Results|Surfaces|v_0"))
(cx-gui-do cx-set-list-tree-selections "NavigationPane*Frame2*Table1*List_Tree2" (list "Results|Surfaces|v_0"))
(cx-gui-do cx-activate-item "NavigationPane*Frame2*Table1*List_Tree2")
(cx-gui-do cx-set-list-tree-selections "NavigationPane*Frame2*Table1*List_Tree2" (list "Results|Surfaces|v_0"))
(cx-gui-do cx-activate-item "Iso-Surface*PanelButtons*PushButton1(OK)")
(cx-gui-do cx-activate-item "Iso-Surface*PanelButtons*PushButton1(OK)")
(cx-gui-do cx-activate-item "Iso-Surface*PanelButtons*PushButton2(Cancel)")
(cx-gui-do cx-set-list-tree-selections "NavigationPane*Frame2*Table1*List_Tree2" (list "Results|Graphics|Contours|mach-contour"))
(cx-gui-do cx-set-list-tree-selections "NavigationPane*Frame2*Table1*List_Tree2" (list "Results|Graphics|Contours|mach-contour"))
(cx-gui-do cx-set-list-tree-selections "NavigationPane*Frame2*Table1*List_Tree2" (list "Results|Graphics|Contours|velocity-contour"))
(cx-gui-do cx-set-list-tree-selections "NavigationPane*Frame2*Table1*List_Tree2" (list "Results|Graphics|Contours|velocity-contour"))
(cx-gui-do cx-set-list-tree-selections "NavigationPane*Frame2*Table1*List_Tree2" (list "Results|Graphics|Contours|velocity-contour"))
(cx-gui-do cx-activate-item "NavigationPane*Frame2*Table1*List_Tree2")
(cx-gui-do cx-set-list-tree-selections "NavigationPane*Frame2*Table1*List_Tree2" (list "Results|Graphics|Contours|velocity-contour"))
(cx-gui-do cx-activate-item "Contours*Table1*Frame1*PushButton5(Colormap Options)")
(cx-gui-do cx-activate-item "Colormap*PanelButtons*PushButton2(Cancel)")
(cx-gui-do cx-activate-item "Contours*Table1*Frame1*PushButton5(Colormap Options)")
(cx-gui-do cx-set-toggle-button2 "Colormap*Table1*Frame5(Colormap)*Frame7(Colormap Background)*CheckButton1(Background Transparent)" #f)
(cx-gui-do cx-activate-item "Colormap*Table1*Frame5(Colormap)*Frame7(Colormap Background)*CheckButton1(Background Transparent)")
(cx-gui-do cx-activate-item "Colormap*PanelButtons*PushButton1(OK)")
(cx-gui-do cx-set-toggle-button2 "Colormap*Table1*Frame5(Colormap)*Frame7(Colormap Background)*CheckButton1(Background Transparent)" #t)
(cx-gui-do cx-activate-item "Colormap*Table1*Frame5(Colormap)*Frame7(Colormap Background)*CheckButton1(Background Transparent)")
(cx-gui-do cx-activate-item "Colormap*PanelButtons*PushButton1(OK)")
(cx-gui-do cx-activate-item "Colormap*PanelButtons*PushButton1(OK)")
(cx-gui-do cx-activate-item "Colormap*PanelButtons*PushButton2(Cancel)")
(cx-gui-do cx-set-list-selections "Contours*Table1*Frame3*Frame2*List2(Surfaces)" '())
(cx-gui-do cx-activate-item "Contours*Table1*Frame3*Frame2*List2(Surfaces)")
(cx-gui-do cx-set-list-selections "Contours*Table1*Frame3*Frame2*List2(Surfaces)" '())
(cx-gui-do cx-activate-item "Contours*Table1*Frame3*Frame2*List2(Surfaces)")
(cx-gui-do cx-set-list-selections "Contours*Table1*Frame3*Frame2*List2(Surfaces)" '())
(cx-gui-do cx-activate-item "Contours*Table1*Frame3*Frame2*List2(Surfaces)")
(cx-gui-do cx-activate-item "Contours*PanelButtons*PushButton1(OK)")
(cx-gui-do cx-activate-item "Contours*PanelButtons*PushButton1(OK)")
(cx-gui-do cx-set-list-selections "Contours*Table1*Frame3*Frame2*List2(Surfaces)" '( 21))
(cx-gui-do cx-activate-item "Contours*Table1*Frame3*Frame2*List2(Surfaces)")
(cx-gui-do cx-activate-item "Contours*PanelButtons*PushButton1(OK)")
(cx-gui-do cx-set-list-selections "Contours*Table1*Frame3*Frame2*List2(Surfaces)" '( 21 4))
(cx-gui-do cx-activate-item "Contours*Table1*Frame3*Frame2*List2(Surfaces)")
(cx-gui-do cx-activate-item "Contours*PanelButtons*PushButton1(OK)")
(cx-gui-do cx-set-list-selections "Contours*Table1*Frame3*Frame2*List2(Surfaces)" '( 21))
(cx-gui-do cx-activate-item "Contours*Table1*Frame3*Frame2*List2(Surfaces)")
(cx-gui-do cx-set-list-selections "Contours*Table1*Frame3*Frame2*List2(Surfaces)" '( 21))
(cx-gui-do cx-activate-item "Contours*Table1*Frame3*Frame2*List2(Surfaces)")
(cx-gui-do cx-set-list-selections "Contours*Table1*Frame3*Frame2*List2(Surfaces)" '( 21))
(cx-gui-do cx-activate-item "Contours*Table1*Frame3*Frame2*List2(Surfaces)")
(cx-gui-do cx-activate-item "Contours*PanelButtons*PushButton1(OK)")
(cx-gui-do cx-set-list-selections "Contours*Table1*Frame3*Frame2*List2(Surfaces)" '( 21 4))
(cx-gui-do cx-activate-item "Contours*Table1*Frame3*Frame2*List2(Surfaces)")
(cx-gui-do cx-set-list-selections "Contours*Table1*Frame3*Frame2*List2(Surfaces)" '( 4))
(cx-gui-do cx-activate-item "Contours*Table1*Frame3*Frame2*List2(Surfaces)")
(cx-gui-do cx-set-list-selections "Contours*Table1*Frame3*Frame2*List2(Surfaces)" '( 4 22))
(cx-gui-do cx-activate-item "Contours*Table1*Frame3*Frame2*List2(Surfaces)")
(cx-gui-do cx-activate-item "Contours*PanelButtons*PushButton1(OK)")
(cx-gui-do cx-activate-item "Contours*PanelButtons*PushButton2(Cancel)")
(cx-gui-do cx-set-list-tree-selections "NavigationPane*Frame2*Table1*List_Tree2" (list "Solution|Methods""Solution|Controls""Solution|Report Definitions""Solution|Monitors""Solution|Cell Registers""Solution|Automatic Mesh Adaption""Solution|Initialization""Solution|Calculation Activities""Solution|Run Calculation""Results|Surfaces|mach-1""Results|Surfaces|mach-2""Results|Surfaces|mach-3""Results|Surfaces|mach-4""Results|Surfaces|mach-5""Results|Surfaces|mach-6""Results|Surfaces|mach-6.3""Solution""Results""Results|Surfaces"))
(cx-gui-do cx-activate-item "Ribbon*Frame1*Frame5(Solution)*Table1*PushButton1(Run Calculation)")
(cx-gui-do cx-set-integer-entry "Ribbon*Frame1*Frame5(Solution)*Table1*Table3(Run Calculation)*Table6*IntegerEntry16(No  of Iterations)" 10000)
(cx-gui-do cx-activate-item "Ribbon*Frame1*Frame5(Solution)*Table1*Table3(Run Calculation)*Table6*IntegerEntry16(No  of Iterations)")
(cx-gui-do cx-activate-item "Ribbon*Frame1*Frame5(Solution)*Table1*Table3(Run Calculation)*PushButton9(Calculate)")


  iter  continuity  x-velocity  y-velocity      energy           k       omega  exit-stati   exit-mach  mass-flow-  mass-flow-     time/iter
  2000  1.1700e-02  4.3814e-04  3.7468e-04  1.1515e-02  6.7443e-04  5.3463e-04  1.0492e+02  2.5631e+00  7.7973e-05  7.7973e-05  0:00:00 10000

 Reversed flow on 20 faces (63.3% area) of pressure-inlet 41.

 absolute pressure limited to 1.000000e+00 in 35517 cells on zone 100 
  2001  1.1670e-02  4.3787e-04  3.7637e-04  1.1486e-02  6.7434e-04  5.3437e-04  1.0487e+02  2.5635e+00  7.7947e-05  7.7947e-05  1:27:25 9999

 Reversed flow on 20 faces (63.3% area) of pressure-inlet 41.

 absolute pressure limited to 1.000000e+00 in 35519 cells on zone 100 
  2002  1.1641e-02  4.3760e-04  3.7794e-04  1.1458e-02  6.7425e-04  5.3412e-04  1.0481e+02  2.5639e+00  7.7921e-05  7.7921e-05  5:14:58 9998

 Reversed flow on 20 faces (63.3% area) of pressure-inlet 41.

 absolute pressure limited to 1.000000e+00 in 35523 cells on zone 100 
  2003  1.1613e-02  4.3732e-04  3.7941e-04  1.1431e-02  6.7416e-04  5.3386e-04  1.0476e+02  2.5643e+00  7.7896e-05  7.7896e-05  4:49:27 9997

 Reversed flow on 20 faces (63.3% area) of pressure-inlet 41.

 absolute pressure limited to 1.000000e+00 in 35525 cells on zone 100 
  2004  1.1586e-02  4.3703e-04  3.8076e-04  1.1405e-02  6.7408e-04  5.3361e-04  1.0470e+02  2.5647e+00  7.7870e-05  7.7870e-05  4:28:42 9996

 Reversed flow on 20 faces (63.3% area) of pressure-inlet 41.

 absolute pressure limited to 1.000000e+00 in 35527 cells on zone 100 
  2005  1.1559e-02  4.3673e-04  3.8200e-04  1.1379e-02  6.7400e-04  5.3335e-04  1.0464e+02  2.5652e+00  7.7844e-05  7.7844e-05  4:12:24 9995

 Reversed flow on 20 faces (63.3% area) of pressure-inlet 41.

 absolute pressure limited to 1.000000e+00 in 35532 cells on zone 100 
  2006  1.1533e-02  4.3641e-04  3.8311e-04  1.1354e-02  6.7393e-04  5.3309e-04  1.0459e+02  2.5656e+00  7.7819e-05  7.7819e-05  4:02:37 9994

 Reversed flow on 20 faces (63.3% area) of pressure-inlet 41.

 absolute pressure limited to 1.000000e+00 in 35538 cells on zone 100 
  2007  1.1508e-02  4.3609e-04  3.8411e-04  1.1330e-02  6.7386e-04  5.3284e-04  1.0453e+02  2.5660e+00  7.7793e-05  7.7793e-05  3:51:24 9993

 Reversed flow on 20 faces (63.3% area) of pressure-inlet 41.

 absolute pressure limited to 1.000000e+00 in 35543 cells on zone 100 
  2008  1.1484e-02  4.3577e-04  3.8499e-04  1.1307e-02  6.7379e-04  5.3258e-04  1.0448e+02  2.5664e+00  7.7768e-05  7.7768e-05  3:42:00 9992

 Reversed flow on 20 faces (63.3% area) of pressure-inlet 41.

 absolute pressure limited to 1.000000e+00 in 35548 cells on zone 100 
  2009  1.1460e-02  4.3543e-04  3.8574e-04  1.1284e-02  6.7372e-04  5.3233e-04  1.0442e+02  2.5668e+00  7.7742e-05  7.7742e-05  3:59:34 9991

 Reversed flow on 20 faces (63.3% area) of pressure-inlet 41.

 absolute pressure limited to 1.000000e+00 in 35549 cells on zone 100 
  2010  1.1437e-02  4.3509e-04  3.8636e-04  1.1262e-02  6.7366e-04  5.3207e-04  1.0436e+02  2.5672e+00  7.7716e-05  7.7716e-05  3:49:53 9990

 Reversed flow on 20 faces (63.3% area) of pressure-inlet 41.
Absolute pressure limited to 1.000000e+00 in 390914 cells during the last 11 iterations

 absolute pressure limited to 1.000000e+00 in 35554 cells on zone 100 

  iter  continuity  x-velocity  y-velocity      energy           k       omega  exit-stati   exit-mach  mass-flow-  mass-flow-     time/iter
  2011  1.1416e-02  4.3474e-04  3.8684e-04  1.1242e-02  6.7360e-04  5.3182e-04  1.0431e+02  2.5676e+00  7.7691e-05  7.7691e-05  3:41:40 9989

 Reversed flow on 20 faces (63.3% area) of pressure-inlet 41.

 absolute pressure limited to 1.000000e+00 in 35556 cells on zone 100 
  2012  1.1395e-02  4.3438e-04  3.8720e-04  1.1221e-02  6.7355e-04  5.3156e-04  1.0425e+02  2.5680e+00  7.7665e-05  7.7665e-05  3:35:09 9988

 Reversed flow on 20 faces (63.3% area) of pressure-inlet 41.

 absolute pressure limited to 1.000000e+00 in 35561 cells on zone 100 
  2013  1.1374e-02  4.3401e-04  3.8745e-04  1.1202e-02  6.7350e-04  5.3131e-04  1.0419e+02  2.5684e+00  7.7640e-05  7.7640e-05  3:29:20 9987

 Reversed flow on 20 faces (63.3% area) of pressure-inlet 41.

 absolute pressure limited to 1.000000e+00 in 35565 cells on zone 100 
  2014  1.1355e-02  4.3363e-04  3.8757e-04  1.1184e-02  6.7345e-04  5.3105e-04  1.0414e+02  2.5688e+00  7.7614e-05  7.7614e-05  3:25:10 9986

 Reversed flow on 20 faces (63.3% area) of pressure-inlet 41.

 absolute pressure limited to 1.000000e+00 in 35568 cells on zone 100 
  2015  1.1337e-02  4.3325e-04  3.8757e-04  1.1166e-02  6.7340e-04  5.3080e-04  1.0408e+02  2.5692e+00  7.7589e-05  7.7589e-05  3:20:19 9985

 Reversed flow on 20 faces (63.3% area) of pressure-inlet 41.

 absolute pressure limited to 1.000000e+00 in 35572 cells on zone 100 
  2016  1.1319e-02  4.3287e-04  3.8745e-04  1.1149e-02  6.7336e-04  5.3054e-04  1.0403e+02  2.5697e+00  7.7563e-05  7.7563e-05  3:17:04 9984

 Reversed flow on 20 faces (63.3% area) of pressure-inlet 41.

 absolute pressure limited to 1.000000e+00 in 35575 cells on zone 100 
  2017  1.1302e-02  4.3247e-04  3.8720e-04  1.1133e-02  6.7332e-04  5.3029e-04  1.0397e+02  2.5701e+00  7.7538e-05  7.7538e-05  3:13:12 9983

 Reversed flow on 20 faces (63.3% area) of pressure-inlet 41.

 absolute pressure limited to 1.000000e+00 in 35577 cells on zone 100 
  2018  1.1287e-02  4.3205e-04  3.8682e-04  1.1118e-02  6.7329e-04  5.3003e-04  1.0391e+02  2.5705e+00  7.7513e-05  7.7513e-05  3:17:09 9982

 Reversed flow on 20 faces (63.3% area) of pressure-inlet 41.

 absolute pressure limited to 1.000000e+00 in 35584 cells on zone 100 
  2019  1.1272e-02  4.3163e-04  3.8633e-04  1.1104e-02  6.7325e-04  5.2978e-04  1.0386e+02  2.5709e+00  7.7487e-05  7.7487e-05  3:14:02 9981

 Reversed flow on 20 faces (63.3% area) of pressure-inlet 41.

 absolute pressure limited to 1.000000e+00 in 35586 cells on zone 100 
  2020  1.1258e-02  4.3120e-04  3.8572e-04  1.1091e-02  6.7323e-04  5.2952e-04  1.0380e+02  2.5713e+00  7.7462e-05  7.7462e-05  3:30:55 9980

 Reversed flow on 20 faces (63.3% area) of pressure-inlet 41.

 absolute pressure limited to 1.000000e+00 in 35588 cells on zone 100 
  2021  1.1245e-02  4.3075e-04  3.8500e-04  1.1079e-02  6.7320e-04  5.2927e-04  1.0375e+02  2.5717e+00  7.7437e-05  7.7437e-05  3:23:38 9979

 Reversed flow on 20 faces (63.3% area) of pressure-inlet 41.
Absolute pressure limited to 1.000000e+00 in 391364 cells during the last 11 iterations

 absolute pressure limited to 1.000000e+00 in 35592 cells on zone 100 

  iter  continuity  x-velocity  y-velocity      energy           k       omega  exit-stati   exit-mach  mass-flow-  mass-flow-     time/iter
  2022  1.1234e-02  4.3030e-04  3.8417e-04  1.1068e-02  6.7318e-04  5.2902e-04  1.0369e+02  2.5721e+00  7.7411e-05  7.7411e-05  3:18:19 9978

 Reversed flow on 20 faces (63.3% area) of pressure-inlet 41.

 absolute pressure limited to 1.000000e+00 in 35597 cells on zone 100 
  2023  1.1223e-02  4.2984e-04  3.8321e-04  1.1057e-02  6.7316e-04  5.2876e-04  1.0363e+02  2.5726e+00  7.7386e-05  7.7386e-05  3:13:13 9977

 Reversed flow on 20 faces (63.3% area) of pressure-inlet 41.

 absolute pressure limited to 1.000000e+00 in 35602 cells on zone 100 
  2024  1.1213e-02  4.2939e-04  3.8214e-04  1.1048e-02  6.7315e-04  5.2851e-04  1.0358e+02  2.5730e+00  7.7361e-05  7.7361e-05  3:09:56 9976

 Reversed flow on 20 faces (63.3% area) of pressure-inlet 41.

 absolute pressure limited to 1.000000e+00 in 35605 cells on zone 100 
  2025  1.1205e-02  4.2892e-04  3.8097e-04  1.1040e-02  6.7314e-04  5.2825e-04  1.0352e+02  2.5734e+00  7.7335e-05  7.7335e-05  3:05:13 9975

 Reversed flow on 20 faces (63.3% area) of pressure-inlet 41.

 absolute pressure limited to 1.000000e+00 in 35608 cells on zone 100 
  2026  1.1198e-02  4.2844e-04  3.7971e-04  1.1034e-02  6.7313e-04  5.2800e-04  1.0347e+02  2.5738e+00  7.7310e-05  7.7310e-05  3:04:03 9974

 Reversed flow on 20 faces (63.3% area) of pressure-inlet 41.

 absolute pressure limited to 1.000000e+00 in 35612 cells on zone 100 
  2027  1.1192e-02  4.2794e-04  3.7834e-04  1.1028e-02  6.7312e-04  5.2774e-04  1.0341e+02  2.5742e+00  7.7285e-05  7.7285e-05  3:01:23 9973

 Reversed flow on 20 faces (63.3% area) of pressure-inlet 41.

 absolute pressure limited to 1.000000e+00 in 35613 cells on zone 100 
  2028  1.1188e-02  4.2744e-04  3.7686e-04  1.1024e-02  6.7312e-04  5.2749e-04  1.0335e+02  2.5746e+00  7.7260e-05  7.7260e-05  2:56:46 9972

 Reversed flow on 20 faces (63.3% area) of pressure-inlet 41.

 absolute pressure limited to 1.000000e+00 in 35615 cells on zone 100 
  2029  1.1184e-02  4.2692e-04  3.7528e-04  1.1021e-02  6.7313e-04  5.2724e-04  1.0330e+02  2.5751e+00  7.7234e-05  7.7234e-05  2:52:50 9971

 Reversed flow on 20 faces (63.3% area) of pressure-inlet 41.

 absolute pressure limited to 1.000000e+00 in 35619 cells on zone 100 
  2030  1.1182e-02  4.2639e-04  3.7359e-04  1.1019e-02  6.7313e-04  5.2698e-04  1.0324e+02  2.5755e+00  7.7209e-05  7.7209e-05  2:49:49 9970

 Reversed flow on 20 faces (63.3% area) of pressure-inlet 41.

 absolute pressure limited to 1.000000e+00 in 35621 cells on zone 100 
  2031  1.1182e-02  4.2585e-04  3.7182e-04  1.1019e-02  6.7314e-04  5.2673e-04  1.0318e+02  2.5759e+00  7.7184e-05  7.7184e-05  3:04:23 9969

 Reversed flow on 20 faces (63.3% area) of pressure-inlet 41.

 absolute pressure limited to 1.000000e+00 in 35624 cells on zone 100 
  2032  1.1183e-02  4.2530e-04  3.6995e-04  1.1020e-02  6.7316e-04  5.2648e-04  1.0313e+02  2.5763e+00  7.7159e-05  7.7159e-05  2:58:39 9968

 Reversed flow on 20 faces (63.3% area) of pressure-inlet 41.
Absolute pressure limited to 1.000000e+00 in 391780 cells during the last 11 iterations

 absolute pressure limited to 1.000000e+00 in 35628 cells on zone 100 

  iter  continuity  x-velocity  y-velocity      energy           k       omega  exit-stati   exit-mach  mass-flow-  mass-flow-     time/iter
  2033  1.1185e-02  4.2473e-04  3.6798e-04  1.1023e-02  6.7317e-04  5.2622e-04  1.0307e+02  2.5767e+00  7.7134e-05  7.7134e-05  2:53:20 9967

 Reversed flow on 20 faces (63.3% area) of pressure-inlet 41.

 absolute pressure limited to 1.000000e+00 in 35633 cells on zone 100 
  2034  1.1189e-02  4.2415e-04  3.6589e-04  1.1027e-02  6.7319e-04  5.2597e-04  1.0302e+02  2.5772e+00  7.7109e-05  7.7109e-05  2:49:03 9966

 Reversed flow on 20 faces (63.3% area) of pressure-inlet 41.

 absolute pressure limited to 1.000000e+00 in 35640 cells on zone 100 
  2035  1.1195e-02  4.2357e-04  3.6374e-04  1.1032e-02  6.7322e-04  5.2571e-04  1.0296e+02  2.5776e+00  7.7084e-05  7.7084e-05  2:45:14 9965

 Reversed flow on 20 faces (63.3% area) of pressure-inlet 41.

 absolute pressure limited to 1.000000e+00 in 35642 cells on zone 100 
  2036  1.1202e-02  4.2299e-04  3.6151e-04  1.1039e-02  6.7324e-04  5.2546e-04  1.0290e+02  2.5780e+00  7.7059e-05  7.7059e-05  2:44:43 9964

 Reversed flow on 20 faces (63.3% area) of pressure-inlet 41.

 absolute pressure limited to 1.000000e+00 in 35645 cells on zone 100 
  2037  1.1210e-02  4.2240e-04  3.5922e-04  1.1048e-02  6.7327e-04  5.2521e-04  1.0285e+02  2.5784e+00  7.7034e-05  7.7034e-05  2:43:04 9963

 Reversed flow on 20 faces (63.3% area) of pressure-inlet 41.

 absolute pressure limited to 1.000000e+00 in 35649 cells on zone 100 
  2038  1.1220e-02  4.2180e-04  3.5687e-04  1.1058e-02  6.7330e-04  5.2495e-04  1.0279e+02  2.5789e+00  7.7009e-05  7.7009e-05  2:42:56 9962

 Reversed flow on 20 faces (63.3% area) of pressure-inlet 41.

 absolute pressure limited to 1.000000e+00 in 35652 cells on zone 100 
  2039  1.1231e-02  4.2118e-04  3.5446e-04  1.1069e-02  6.7333e-04  5.2470e-04  1.0274e+02  2.5793e+00  7.6984e-05  7.6984e-05  2:40:29 9961

 Reversed flow on 20 faces (63.3% area) of pressure-inlet 41.

 absolute pressure limited to 1.000000e+00 in 35658 cells on zone 100 
  2040  1.1244e-02  4.2055e-04  3.5197e-04  1.1082e-02  6.7337e-04  5.2445e-04  1.0268e+02  2.5797e+00  7.6959e-05  7.6959e-05  2:38:27 9960

 Reversed flow on 20 faces (63.3% area) of pressure-inlet 41.

 absolute pressure limited to 1.000000e+00 in 35661 cells on zone 100 
  2041  1.1258e-02  4.1992e-04  3.4940e-04  1.1096e-02  6.7341e-04  5.2419e-04  1.0262e+02  2.5801e+00  7.6934e-05  7.6934e-05  2:39:49 9959

 Reversed flow on 20 faces (63.3% area) of pressure-inlet 41.

 absolute pressure limited to 1.000000e+00 in 35665 cells on zone 100 
  2042  1.1274e-02  4.1928e-04  3.4680e-04  1.1112e-02  6.7345e-04  5.2394e-04  1.0257e+02  2.5806e+00  7.6909e-05  7.6909e-05  2:55:03 9958

 Reversed flow on 20 faces (63.3% area) of pressure-inlet 41.

 absolute pressure limited to 1.000000e+00 in 35666 cells on zone 100 
  2043  1.1290e-02  4.1862e-04  3.4417e-04  1.1128e-02  6.7350e-04  5.2369e-04  1.0251e+02  2.5810e+00  7.6884e-05  7.6884e-05  2:49:53 9957

 Reversed flow on 20 faces (63.3% area) of pressure-inlet 41.
Absolute pressure limited to 1.000000e+00 in 392220 cells during the last 11 iterations

 absolute pressure limited to 1.000000e+00 in 35669 cells on zone 100 

  iter  continuity  x-velocity  y-velocity      energy           k       omega  exit-stati   exit-mach  mass-flow-  mass-flow-     time/iter
  2044  1.1308e-02  4.1795e-04  3.4150e-04  1.1146e-02  6.7355e-04  5.2343e-04  1.0246e+02  2.5814e+00  7.6859e-05  7.6859e-05  2:45:53 9956

 Reversed flow on 20 faces (63.3% area) of pressure-inlet 41.

 absolute pressure limited to 1.000000e+00 in 35674 cells on zone 100 
  2045  1.1327e-02  4.1728e-04  3.3876e-04  1.1164e-02  6.7360e-04  5.2318e-04  1.0240e+02  2.5818e+00  7.6834e-05  7.6834e-05  2:42:49 9955

 Reversed flow on 20 faces (63.3% area) of pressure-inlet 41.

 absolute pressure limited to 1.000000e+00 in 35675 cells on zone 100 
  2046  1.1347e-02  4.1660e-04  3.3602e-04  1.1184e-02  6.7365e-04  5.2293e-04  1.0234e+02  2.5823e+00  7.6809e-05  7.6809e-05  2:40:27 9954

 Reversed flow on 20 faces (63.3% area) of pressure-inlet 41.

 absolute pressure limited to 1.000000e+00 in 35678 cells on zone 100 
  2047  1.1367e-02  4.1592e-04  3.3326e-04  1.1204e-02  6.7371e-04  5.2268e-04  1.0229e+02  2.5827e+00  7.6784e-05  7.6784e-05  2:39:16 9953

 Reversed flow on 20 faces (63.3% area) of pressure-inlet 41.

 absolute pressure limited to 1.000000e+00 in 35681 cells on zone 100 
  2048  1.1388e-02  4.1524e-04  3.3047e-04  1.1225e-02  6.7377e-04  5.2242e-04  1.0223e+02  2.5831e+00  7.6760e-05  7.6760e-05  2:39:55 9952

 Reversed flow on 20 faces (63.3% area) of pressure-inlet 41.

 absolute pressure limited to 1.000000e+00 in 35686 cells on zone 100 
  2049  1.1410e-02  4.1454e-04  3.2765e-04  1.1246e-02  6.7383e-04  5.2217e-04  1.0218e+02  2.5836e+00  7.6735e-05  7.6735e-05  2:40:54 9951

 Reversed flow on 20 faces (63.3% area) of pressure-inlet 41.

 absolute pressure limited to 1.000000e+00 in 35688 cells on zone 100 
  2050  1.1431e-02  4.1383e-04  3.2487e-04  1.1268e-02  6.7389e-04  5.2192e-04  1.0212e+02  2.5840e+00  7.6710e-05  7.6710e-05  2:40:17 9950

 Reversed flow on 20 faces (63.3% area) of pressure-inlet 41.

 absolute pressure limited to 1.000000e+00 in 35692 cells on zone 100 
  2051  1.1454e-02  4.1312e-04  3.2211e-04  1.1290e-02  6.7396e-04  5.2166e-04  1.0206e+02  2.5844e+00  7.6685e-05  7.6685e-05  2:39:30 9949

 Reversed flow on 20 faces (63.3% area) of pressure-inlet 41.

 absolute pressure limited to 1.000000e+00 in 35694 cells on zone 100 
  2052  1.1476e-02  4.1241e-04  3.1936e-04  1.1312e-02  6.7403e-04  5.2141e-04  1.0201e+02  2.5849e+00  7.6661e-05  7.6661e-05  2:38:51 9948

 Reversed flow on 20 faces (63.3% area) of pressure-inlet 41.

 absolute pressure limited to 1.000000e+00 in 35698 cells on zone 100 
  2053  1.1498e-02  4.1170e-04  3.1665e-04  1.1335e-02  6.7410e-04  5.2116e-04  1.0195e+02  2.5853e+00  7.6636e-05  7.6636e-05  2:58:06 9947

 Reversed flow on 20 faces (63.3% area) of pressure-inlet 41.

 absolute pressure limited to 1.000000e+00 in 35702 cells on zone 100 
  2054  1.1520e-02  4.1099e-04  3.1397e-04  1.1356e-02  6.7417e-04  5.2090e-04  1.0190e+02  2.5857e+00  7.6611e-05  7.6611e-05  2:53:46 9946

 Reversed flow on 20 faces (63.3% area) of pressure-inlet 41.
Absolute pressure limited to 1.000000e+00 in 392609 cells during the last 11 iterations

 absolute pressure limited to 1.000000e+00 in 35706 cells on zone 100 

  iter  continuity  x-velocity  y-velocity      energy           k       omega  exit-stati   exit-mach  mass-flow-  mass-flow-     time/iter
  2055  1.1542e-02  4.1027e-04  3.1131e-04  1.1378e-02  6.7425e-04  5.2065e-04  1.0184e+02  2.5862e+00  7.6586e-05  7.6586e-05  2:50:39 9945

 Reversed flow on 20 faces (63.3% area) of pressure-inlet 41.

 absolute pressure limited to 1.000000e+00 in 35710 cells on zone 100 
  2056  1.1563e-02  4.0955e-04  3.0870e-04  1.1399e-02  6.7432e-04  5.2040e-04  1.0178e+02  2.5866e+00  7.6562e-05  7.6562e-05  2:49:37 9944

 Reversed flow on 20 faces (63.3% area) of pressure-inlet 41.

 absolute pressure limited to 1.000000e+00 in 35710 cells on zone 100 
  2057  1.1584e-02  4.0883e-04  3.0615e-04  1.1420e-02  6.7440e-04  5.2015e-04  1.0173e+02  2.5870e+00  7.6537e-05  7.6537e-05  2:47:54 9943

 Reversed flow on 20 faces (63.3% area) of pressure-inlet 41.

 absolute pressure limited to 1.000000e+00 in 35713 cells on zone 100 
  2058  1.1604e-02  4.0808e-04  3.0365e-04  1.1440e-02  6.7448e-04  5.1989e-04  1.0167e+02  2.5875e+00  7.6513e-05  7.6513e-05  2:47:46 9942

 Reversed flow on 20 faces (63.3% area) of pressure-inlet 41.

 absolute pressure limited to 1.000000e+00 in 35718 cells on zone 100 
  2059  1.1624e-02  4.0733e-04  3.0123e-04  1.1459e-02  6.7456e-04  5.1964e-04  1.0162e+02  2.5879e+00  7.6488e-05  7.6488e-05  2:47:11 9941

 Reversed flow on 20 faces (63.3% area) of pressure-inlet 41.

 absolute pressure limited to 1.000000e+00 in 35718 cells on zone 100 
  2060  1.1642e-02  4.0659e-04  2.9889e-04  1.1478e-02  6.7465e-04  5.1939e-04  1.0156e+02  2.5883e+00  7.6463e-05  7.6463e-05  2:50:06 9940

 Reversed flow on 20 faces (63.3% area) of pressure-inlet 41.

 absolute pressure limited to 1.000000e+00 in 35722 cells on zone 100 
  2061  1.1660e-02  4.0585e-04  2.9664e-04  1.1495e-02  6.7473e-04  5.1914e-04  1.0150e+02  2.5888e+00  7.6439e-05  7.6439e-05  2:52:31 9939

 Reversed flow on 20 faces (63.3% area) of pressure-inlet 41.

 absolute pressure limited to 1.000000e+00 in 35725 cells on zone 100 
  2062  1.1676e-02  4.0510e-04  2.9445e-04  1.1511e-02  6.7482e-04  5.1888e-04  1.0145e+02  2.5892e+00  7.6414e-05  7.6414e-05  2:52:11 9938

 Reversed flow on 20 faces (63.3% area) of pressure-inlet 41.

 absolute pressure limited to 1.000000e+00 in 35727 cells on zone 100 
  2063  1.1691e-02  4.0436e-04  2.9237e-04  1.1527e-02  6.7491e-04  5.1863e-04  1.0139e+02  2.5896e+00  7.6390e-05  7.6390e-05  2:51:23 9937

 Reversed flow on 20 faces (63.3% area) of pressure-inlet 41.

 absolute pressure limited to 1.000000e+00 in 35729 cells on zone 100 
  2064  1.1705e-02  4.0362e-04  2.9034e-04  1.1540e-02  6.7500e-04  5.1838e-04  1.0134e+02  2.5901e+00  7.6365e-05  7.6365e-05  3:09:35 9936

 Reversed flow on 20 faces (63.3% area) of pressure-inlet 41.

 absolute pressure limited to 1.000000e+00 in 35731 cells on zone 100 
  2065  1.1718e-02  4.0290e-04  2.8849e-04  1.1553e-02  6.7509e-04  5.1812e-04  1.0128e+02  2.5905e+00  7.6341e-05  7.6341e-05  3:16:07 9935

 Reversed flow on 20 faces (63.3% area) of pressure-inlet 41.
Absolute pressure limited to 1.000000e+00 in 392967 cells during the last 11 iterations

 absolute pressure limited to 1.000000e+00 in 35735 cells on zone 100 

  iter  continuity  x-velocity  y-velocity      energy           k       omega  exit-stati   exit-mach  mass-flow-  mass-flow-     time/iter
  2066  1.1729e-02  4.0217e-04  2.8672e-04  1.1564e-02  6.7518e-04  5.1787e-04  1.0122e+02  2.5910e+00  7.6316e-05  7.6316e-05  3:13:15 9934

 Reversed flow on 20 faces (63.3% area) of pressure-inlet 41.

 absolute pressure limited to 1.000000e+00 in 35741 cells on zone 100 
  2067  1.1739e-02  4.0145e-04  2.8506e-04  1.1574e-02  6.7528e-04  5.1762e-04  1.0117e+02  2.5914e+00  7.6292e-05  7.6292e-05  3:14:00 9933

 Reversed flow on 20 faces (63.3% area) of pressure-inlet 41.

 absolute pressure limited to 1.000000e+00 in 35745 cells on zone 100 
  2068  1.1747e-02  4.0073e-04  2.8351e-04  1.1582e-02  6.7537e-04  5.1737e-04  1.0111e+02  2.5918e+00  7.6267e-05  7.6267e-05  3:11:48 9932

 Reversed flow on 20 faces (63.3% area) of pressure-inlet 41.

 absolute pressure limited to 1.000000e+00 in 35747 cells on zone 100 
  2069  1.1754e-02  4.0001e-04  2.8209e-04  1.1589e-02  6.7547e-04  5.1712e-04  1.0106e+02  2.5923e+00  7.6243e-05  7.6243e-05  3:08:59 9931

 Reversed flow on 20 faces (63.3% area) of pressure-inlet 41.

 absolute pressure limited to 1.000000e+00 in 35750 cells on zone 100 
  2070  1.1759e-02  3.9928e-04  2.8080e-04  1.1593e-02  6.7557e-04  5.1686e-04  1.0100e+02  2.5927e+00  7.6219e-05  7.6219e-05  3:06:22 9930

 Reversed flow on 20 faces (63.3% area) of pressure-inlet 41.

 absolute pressure limited to 1.000000e+00 in 35752 cells on zone 100 
  2071  1.1762e-02  3.9856e-04  2.7964e-04  1.1597e-02  6.7567e-04  5.1661e-04  1.0094e+02  2.5932e+00  7.6194e-05  7.6194e-05  3:03:18 9929

 Reversed flow on 20 faces (63.3% area) of pressure-inlet 41.

 absolute pressure limited to 1.000000e+00 in 35758 cells on zone 100 
  2072  1.1763e-02  3.9784e-04  2.7863e-04  1.1598e-02  6.7578e-04  5.1636e-04  1.0089e+02  2.5936e+00  7.6170e-05  7.6170e-05  3:02:17 9928

 Reversed flow on 20 faces (63.3% area) of pressure-inlet 41.

 absolute pressure limited to 1.000000e+00 in 35762 cells on zone 100 
  2073  1.1762e-02  3.9711e-04  2.7774e-04  1.1597e-02  6.7588e-04  5.1611e-04  1.0083e+02  2.5940e+00  7.6146e-05  7.6146e-05  3:00:45 9927

 Reversed flow on 20 faces (63.3% area) of pressure-inlet 41.

 absolute pressure limited to 1.000000e+00 in 35765 cells on zone 100 
  2074  1.1760e-02  3.9640e-04  2.7699e-04  1.1595e-02  6.7598e-04  5.1585e-04  1.0078e+02  2.5945e+00  7.6122e-05  7.6122e-05  2:59:22 9926

 Reversed flow on 20 faces (63.3% area) of pressure-inlet 41.

 absolute pressure limited to 1.000000e+00 in 35771 cells on zone 100 
  2075  1.1755e-02  3.9569e-04  2.7638e-04  1.1591e-02  6.7609e-04  5.1560e-04  1.0072e+02  2.5949e+00  7.6097e-05  7.6097e-05  3:17:30 9925

 Reversed flow on 20 faces (63.3% area) of pressure-inlet 41.

 absolute pressure limited to 1.000000e+00 in 35773 cells on zone 100 
  2076  1.1749e-02  3.9499e-04  2.7593e-04  1.1584e-02  6.7620e-04  5.1535e-04  1.0067e+02  2.5954e+00  7.6073e-05  7.6073e-05  3:12:38 9924

 Reversed flow on 20 faces (63.3% area) of pressure-inlet 41.
Absolute pressure limited to 1.000000e+00 in 393374 cells during the last 11 iterations

 absolute pressure limited to 1.000000e+00 in 35775 cells on zone 100 

  iter  continuity  x-velocity  y-velocity      energy           k       omega  exit-stati   exit-mach  mass-flow-  mass-flow-     time/iter
  2077  1.1740e-02  3.9429e-04  2.7561e-04  1.1576e-02  6.7631e-04  5.1510e-04  1.0061e+02  2.5958e+00  7.6049e-05  7.6049e-05  3:09:12 9923

 Reversed flow on 20 faces (63.3% area) of pressure-inlet 41.

 absolute pressure limited to 1.000000e+00 in 35776 cells on zone 100 
  2078  1.1730e-02  3.9360e-04  2.7544e-04  1.1566e-02  6.7642e-04  5.1484e-04  1.0055e+02  2.5963e+00  7.6025e-05  7.6025e-05  3:07:15 9922

 Reversed flow on 20 faces (63.3% area) of pressure-inlet 41.

 absolute pressure limited to 1.000000e+00 in 35780 cells on zone 100 
  2079  1.1718e-02  3.9289e-04  2.7542e-04  1.1554e-02  6.7653e-04  5.1459e-04  1.0050e+02  2.5967e+00  7.6001e-05  7.6001e-05  3:09:20 9921

 Reversed flow on 20 faces (63.3% area) of pressure-inlet 41.

 absolute pressure limited to 1.000000e+00 in 35781 cells on zone 100 
  2080  1.1704e-02  3.9219e-04  2.7556e-04  1.1540e-02  6.7664e-04  5.1434e-04  1.0044e+02  2.5972e+00  7.5976e-05  7.5976e-05  3:08:33 9920

 Reversed flow on 20 faces (63.3% area) of pressure-inlet 41.

 absolute pressure limited to 1.000000e+00 in 35785 cells on zone 100 
  2081  1.1688e-02  3.9150e-04  2.7584e-04  1.1524e-02  6.7675e-04  5.1409e-04  1.0039e+02  2.5976e+00  7.5952e-05  7.5952e-05  3:05:34 9919

 Reversed flow on 20 faces (63.3% area) of pressure-inlet 41.

 absolute pressure limited to 1.000000e+00 in 35788 cells on zone 100 
  2082  1.1670e-02  3.9082e-04  2.7625e-04  1.1506e-02  6.7687e-04  5.1384e-04  1.0033e+02  2.5981e+00  7.5928e-05  7.5928e-05  3:10:24 9918

 Reversed flow on 20 faces (63.3% area) of pressure-inlet 41.

 absolute pressure limited to 1.000000e+00 in 35790 cells on zone 100 
  2083  1.1650e-02  3.9014e-04  2.7678e-04  1.1487e-02  6.7698e-04  5.1358e-04  1.0028e+02  2.5985e+00  7.5904e-05  7.5904e-05  3:07:19 9917

 Reversed flow on 20 faces (63.3% area) of pressure-inlet 41.

 absolute pressure limited to 1.000000e+00 in 35792 cells on zone 100 
  2084  1.1628e-02  3.8947e-04  2.7744e-04  1.1465e-02  6.7710e-04  5.1333e-04  1.0022e+02  2.5990e+00  7.5880e-05  7.5880e-05  3:03:55 9916

 Reversed flow on 20 faces (63.3% area) of pressure-inlet 41.

 absolute pressure limited to 1.000000e+00 in 35800 cells on zone 100 
  2085  1.1605e-02  3.8879e-04  2.7822e-04  1.1442e-02  6.7722e-04  5.1308e-04  1.0016e+02  2.5994e+00  7.5856e-05  7.5856e-05  3:02:25 9915

 Reversed flow on 20 faces (63.3% area) of pressure-inlet 41.

 absolute pressure limited to 1.000000e+00 in 35804 cells on zone 100 
  2086  1.1580e-02  3.8813e-04  2.7912e-04  1.1418e-02  6.7734e-04  5.1283e-04  1.0011e+02  2.5999e+00  7.5832e-05  7.5832e-05  3:20:42 9914

 Reversed flow on 20 faces (63.3% area) of pressure-inlet 41.

 absolute pressure limited to 1.000000e+00 in 35809 cells on zone 100 
  2087  1.1554e-02  3.8747e-04  2.8013e-04  1.1392e-02  6.7746e-04  5.1258e-04  1.0005e+02  2.6003e+00  7.5808e-05  7.5808e-05  3:15:06 9913

 Reversed flow on 20 faces (63.3% area) of pressure-inlet 41.
Absolute pressure limited to 1.000000e+00 in 393749 cells during the last 11 iterations

 absolute pressure limited to 1.000000e+00 in 35810 cells on zone 100 

  iter  continuity  x-velocity  y-velocity      energy           k       omega  exit-stati   exit-mach  mass-flow-  mass-flow-     time/iter
  2088  1.1526e-02  3.8681e-04  2.8123e-04  1.1365e-02  6.7758e-04  5.1232e-04  9.9998e+01  2.6008e+00  7.5784e-05  7.5784e-05  3:12:18 9912

 Reversed flow on 20 faces (63.3% area) of pressure-inlet 41.

 absolute pressure limited to 1.000000e+00 in 35811 cells on zone 100 
  2089  1.1497e-02  3.8616e-04  2.8245e-04  1.1336e-02  6.7770e-04  5.1207e-04  9.9942e+01  2.6012e+00  7.5760e-05  7.5760e-05  3:08:53 9911

 Reversed flow on 20 faces (63.3% area) of pressure-inlet 41.

 absolute pressure limited to 1.000000e+00 in 35815 cells on zone 100 
  2090  1.1467e-02  3.8552e-04  2.8376e-04  1.1306e-02  6.7782e-04  5.1182e-04  9.9886e+01  2.6017e+00  7.5736e-05  7.5736e-05  3:06:09 9910

 Reversed flow on 20 faces (63.3% area) of pressure-inlet 41.

 absolute pressure limited to 1.000000e+00 in 35817 cells on zone 100 
  2091  1.1436e-02  3.8488e-04  2.8518e-04  1.1275e-02  6.7794e-04  5.1157e-04  9.9831e+01  2.6021e+00  7.5712e-05  7.5712e-05  3:03:25 9909

 Reversed flow on 20 faces (63.3% area) of pressure-inlet 41.

 absolute pressure limited to 1.000000e+00 in 35820 cells on zone 100 
  2092  1.1403e-02  3.8425e-04  2.8667e-04  1.1243e-02  6.7807e-04  5.1132e-04  9.9776e+01  2.6026e+00  7.5688e-05  7.5688e-05  3:02:54 9908

 Reversed flow on 20 faces (63.3% area) of pressure-inlet 41.

 absolute pressure limited to 1.000000e+00 in 35824 cells on zone 100 
  2093  1.1370e-02  3.8361e-04  2.8824e-04  1.1210e-02  6.7819e-04  5.1106e-04  9.9720e+01  2.6030e+00  7.5664e-05  7.5664e-05  3:01:34 9907

 Reversed flow on 20 faces (63.3% area) of pressure-inlet 41.

 absolute pressure limited to 1.000000e+00 in 35829 cells on zone 100 
  2094  1.1336e-02  3.8299e-04  2.8987e-04  1.1177e-02  6.7832e-04  5.1081e-04  9.9665e+01  2.6035e+00  7.5640e-05  7.5640e-05  3:00:28 9906

 Reversed flow on 20 faces (63.3% area) of pressure-inlet 41.

 absolute pressure limited to 1.000000e+00 in 35832 cells on zone 100 
  2095  1.1301e-02  3.8237e-04  2.9157e-04  1.1142e-02  6.7844e-04  5.1056e-04  9.9609e+01  2.6039e+00  7.5617e-05  7.5617e-05  2:59:10 9905

 Reversed flow on 20 faces (63.3% area) of pressure-inlet 41.

 absolute pressure limited to 1.000000e+00 in 35833 cells on zone 100 
  2096  1.1266e-02  3.8176e-04  2.9332e-04  1.1107e-02  6.7857e-04  5.1031e-04  9.9554e+01  2.6044e+00  7.5593e-05  7.5593e-05  2:58:25 9904

 Reversed flow on 20 faces (63.3% area) of pressure-inlet 41.

 absolute pressure limited to 1.000000e+00 in 35838 cells on zone 100 
  2097  1.1230e-02  3.8114e-04  2.9511e-04  1.1072e-02  6.7870e-04  5.1006e-04  9.9498e+01  2.6048e+00  7.5569e-05  7.5569e-05  3:15:14 9903

 Reversed flow on 20 faces (63.3% area) of pressure-inlet 41.

 absolute pressure limited to 1.000000e+00 in 35844 cells on zone 100 
  2098  1.1194e-02  3.8053e-04  2.9694e-04  1.1036e-02  6.7883e-04  5.0981e-04  9.9443e+01  2.6053e+00  7.5545e-05  7.5545e-05  3:14:35 9902

 Reversed flow on 20 faces (63.3% area) of pressure-inlet 41.
Absolute pressure limited to 1.000000e+00 in 394149 cells during the last 11 iterations

 absolute pressure limited to 1.000000e+00 in 35847 cells on zone 100 

  iter  continuity  x-velocity  y-velocity      energy           k       omega  exit-stati   exit-mach  mass-flow-  mass-flow-     time/iter
  2099  1.1157e-02  3.7993e-04  2.9882e-04  1.1000e-02  6.7896e-04  5.0955e-04  9.9388e+01  2.6057e+00  7.5521e-05  7.5521e-05  3:09:26 9901

 Reversed flow on 20 faces (63.3% area) of pressure-inlet 41.

 absolute pressure limited to 1.000000e+00 in 35851 cells on zone 100 
  2100  1.1120e-02  3.7933e-04  3.0072e-04  1.0964e-02  6.7910e-04  5.0930e-04  9.9332e+01  2.6062e+00  7.5498e-05  7.5498e-05  3:04:45 9900

 Reversed flow on 20 faces (63.3% area) of pressure-inlet 41.

 absolute pressure limited to 1.000000e+00 in 35854 cells on zone 100 
  2101  1.1083e-02  3.7875e-04  3.0265e-04  1.0927e-02  6.7923e-04  5.0905e-04  9.9277e+01  2.6067e+00  7.5474e-05  7.5474e-05  3:01:29 9899

 Reversed flow on 20 faces (63.3% area) of pressure-inlet 41.

 absolute pressure limited to 1.000000e+00 in 35857 cells on zone 100 
  2102  1.1046e-02  3.7817e-04  3.0458e-04  1.0891e-02  6.7936e-04  5.0880e-04  9.9222e+01  2.6071e+00  7.5450e-05  7.5450e-05  2:57:53 9898

 Reversed flow on 20 faces (63.3% area) of pressure-inlet 41.

 absolute pressure limited to 1.000000e+00 in 35864 cells on zone 100 
  2103  1.1009e-02  3.7759e-04  3.0651e-04  1.0854e-02  6.7950e-04  5.0855e-04  9.9166e+01  2.6076e+00  7.5426e-05  7.5426e-05  2:56:43 9897

 Reversed flow on 20 faces (63.3% area) of pressure-inlet 41.

 absolute pressure limited to 1.000000e+00 in 35866 cells on zone 100 
  2104  1.0972e-02  3.7702e-04  3.0840e-04  1.0817e-02  6.7965e-04  5.0829e-04  9.9111e+01  2.6080e+00  7.5403e-05  7.5403e-05  2:53:50 9896

 Reversed flow on 20 faces (63.3% area) of pressure-inlet 41.

 absolute pressure limited to 1.000000e+00 in 35874 cells on zone 100 
  2105  1.0935e-02  3.7646e-04  3.1027e-04  1.0781e-02  6.7981e-04  5.0804e-04  9.9056e+01  2.6085e+00  7.5379e-05  7.5379e-05  2:49:49 9895

 Reversed flow on 20 faces (63.3% area) of pressure-inlet 41.

 absolute pressure limited to 1.000000e+00 in 35880 cells on zone 100 
  2106  1.0898e-02  3.7590e-04  3.1213e-04  1.0745e-02  6.7997e-04  5.0779e-04  9.9001e+01  2.6089e+00  7.5355e-05  7.5355e-05  2:46:32 9894

 Reversed flow on 20 faces (63.3% area) of pressure-inlet 41.

 absolute pressure limited to 1.000000e+00 in 35884 cells on zone 100 
  2107  1.0862e-02  3.7535e-04  3.1397e-04  1.0709e-02  6.8014e-04  5.0754e-04  9.8946e+01  2.6094e+00  7.5331e-05  7.5331e-05  2:44:07 9893

 Reversed flow on 20 faces (63.3% area) of pressure-inlet 41.

 absolute pressure limited to 1.000000e+00 in 35886 cells on zone 100 
  2108  1.0825e-02  3.7480e-04  3.1577e-04  1.0673e-02  6.8031e-04  5.0729e-04  9.8890e+01  2.6099e+00  7.5308e-05  7.5308e-05  2:58:34 9892

 Reversed flow on 20 faces (63.3% area) of pressure-inlet 41.

 absolute pressure limited to 1.000000e+00 in 35888 cells on zone 100 
  2109  1.0790e-02  3.7426e-04  3.1754e-04  1.0638e-02  6.8048e-04  5.0704e-04  9.8835e+01  2.6103e+00  7.5284e-05  7.5284e-05  2:52:29 9891

 Reversed flow on 20 faces (63.3% area) of pressure-inlet 41.
Absolute pressure limited to 1.000000e+00 in 394631 cells during the last 11 iterations

 absolute pressure limited to 1.000000e+00 in 35888 cells on zone 100 

  iter  continuity  x-velocity  y-velocity      energy           k       omega  exit-stati   exit-mach  mass-flow-  mass-flow-     time/iter
  2110  1.0754e-02  3.7372e-04  3.1926e-04  1.0603e-02  6.8066e-04  5.0678e-04  9.8780e+01  2.6108e+00  7.5261e-05  7.5261e-05  2:48:41 9890

 Reversed flow on 20 faces (63.3% area) of pressure-inlet 41.

 absolute pressure limited to 1.000000e+00 in 35890 cells on zone 100 
  2111  1.0719e-02  3.7319e-04  3.2092e-04  1.0568e-02  6.8083e-04  5.0653e-04  9.8725e+01  2.6112e+00  7.5237e-05  7.5237e-05  2:44:36 9889

 Reversed flow on 20 faces (63.3% area) of pressure-inlet 41.

 absolute pressure limited to 1.000000e+00 in 35892 cells on zone 100 
  2112  1.0684e-02  3.7266e-04  3.2254e-04  1.0534e-02  6.8100e-04  5.0628e-04  9.8670e+01  2.6117e+00  7.5213e-05  7.5213e-05  2:40:55 9888

 Reversed flow on 20 faces (63.3% area) of pressure-inlet 41.

 absolute pressure limited to 1.000000e+00 in 35896 cells on zone 100 
  2113  1.0650e-02  3.7213e-04  3.2410e-04  1.0500e-02  6.8118e-04  5.0603e-04  9.8615e+01  2.6122e+00  7.5190e-05  7.5190e-05  2:38:40 9887

 Reversed flow on 21 faces (66.1% area) of pressure-inlet 41.

 absolute pressure limited to 1.000000e+00 in 35897 cells on zone 100 
  2114  1.0619e-02  3.7162e-04  3.2559e-04  1.0470e-02  6.8217e-04  5.0578e-04  9.8560e+01  2.6126e+00  7.5166e-05  7.5166e-05  2:34:52 9886

 Reversed flow on 20 faces (63.3% area) of pressure-inlet 41.

 absolute pressure limited to 1.000000e+00 in 35900 cells on zone 100 
  2115  1.0583e-02  3.7112e-04  3.2713e-04  1.0435e-02  6.8176e-04  5.0553e-04  9.8505e+01  2.6131e+00  7.5143e-05  7.5143e-05  2:32:29 9885

 Reversed flow on 20 faces (63.3% area) of pressure-inlet 41.

 absolute pressure limited to 1.000000e+00 in 35908 cells on zone 100 
  2116  1.0551e-02  3.7062e-04  3.2840e-04  1.0403e-02  6.8182e-04  5.0527e-04  9.8450e+01  2.6136e+00  7.5119e-05  7.5119e-05  3:15:20 9884

 Reversed flow on 20 faces (63.3% area) of pressure-inlet 41.

 absolute pressure limited to 1.000000e+00 in 35916 cells on zone 100 
  2117  1.0518e-02  3.7013e-04  3.2968e-04  1.0371e-02  6.8193e-04  5.0502e-04  9.8395e+01  2.6140e+00  7.5096e-05  7.5096e-05  3:06:22 9883

 Reversed flow on 20 faces (63.3% area) of pressure-inlet 41.

 absolute pressure limited to 1.000000e+00 in 35918 cells on zone 100 
  2118  1.0487e-02  3.6964e-04  3.3088e-04  1.0340e-02  6.8208e-04  5.0477e-04  9.8340e+01  2.6145e+00  7.5073e-05  7.5073e-05  2:57:45 9882

 Reversed flow on 21 faces (66.1% area) of pressure-inlet 41.

 absolute pressure limited to 1.000000e+00 in 35921 cells on zone 100 
  2119  1.0458e-02  3.6915e-04  3.3199e-04  1.0312e-02  6.8299e-04  5.0452e-04  9.8286e+01  2.6149e+00  7.5049e-05  7.5049e-05  3:06:37 9881

 Reversed flow on 20 faces (63.3% area) of pressure-inlet 41.

 absolute pressure limited to 1.000000e+00 in 35921 cells on zone 100 
  2120  1.0425e-02  3.6866e-04  3.3308e-04  1.0279e-02  6.8268e-04  5.0427e-04  9.8231e+01  2.6154e+00  7.5026e-05  7.5026e-05  2:57:51 9880

 Reversed flow on 20 faces (63.3% area) of pressure-inlet 41.
Absolute pressure limited to 1.000000e+00 in 395020 cells during the last 11 iterations

 absolute pressure limited to 1.000000e+00 in 35925 cells on zone 100 

  iter  continuity  x-velocity  y-velocity      energy           k       omega  exit-stati   exit-mach  mass-flow-  mass-flow-     time/iter
  2121  1.0395e-02  3.6818e-04  3.3395e-04  1.0249e-02  6.8272e-04  5.0401e-04  9.8176e+01  2.6159e+00  7.5002e-05  7.5002e-05  2:52:11 9879

 Reversed flow on 20 faces (63.3% area) of pressure-inlet 41.

 absolute pressure limited to 1.000000e+00 in 35927 cells on zone 100 
  2122  1.0366e-02  3.6769e-04  3.3481e-04  1.0220e-02  6.8282e-04  5.0376e-04  9.8121e+01  2.6163e+00  7.4979e-05  7.4979e-05  2:48:20 9878

 Reversed flow on 21 faces (66.1% area) of pressure-inlet 41.

 absolute pressure limited to 1.000000e+00 in 35927 cells on zone 100 
  2123  1.0339e-02  3.6722e-04  3.3556e-04  1.0195e-02  6.8367e-04  5.0351e-04  9.8066e+01  2.6168e+00  7.4956e-05  7.4956e-05  2:44:05 9877

 Reversed flow on 20 faces (63.3% area) of pressure-inlet 41.

 absolute pressure limited to 1.000000e+00 in 35930 cells on zone 100 
  2124  1.0309e-02  3.6674e-04  3.3627e-04  1.0165e-02  6.8342e-04  5.0326e-04  9.8012e+01  2.6173e+00  7.4932e-05  7.4932e-05  2:41:18 9876

 Reversed flow on 20 faces (63.3% area) of pressure-inlet 41.

 absolute pressure limited to 1.000000e+00 in 35932 cells on zone 100 
  2125  1.0281e-02  3.6626e-04  3.3678e-04  1.0137e-02  6.8344e-04  5.0301e-04  9.7957e+01  2.6177e+00  7.4909e-05  7.4909e-05  2:38:29 9875

 Reversed flow on 21 faces (66.1% area) of pressure-inlet 41.

 absolute pressure limited to 1.000000e+00 in 35935 cells on zone 100 
  2126  1.0256e-02  3.6579e-04  3.3725e-04  1.0113e-02  6.8417e-04  5.0276e-04  9.7902e+01  2.6182e+00  7.4886e-05  7.4886e-05  2:36:33 9874

 Reversed flow on 20 faces (63.3% area) of pressure-inlet 41.

 absolute pressure limited to 1.000000e+00 in 35936 cells on zone 100 
  2127  1.0229e-02  3.6532e-04  3.3763e-04  1.0085e-02  6.8399e-04  5.0250e-04  9.7848e+01  2.6187e+00  7.4862e-05  7.4862e-05  2:34:52 9873

 Reversed flow on 20 faces (63.3% area) of pressure-inlet 41.

 absolute pressure limited to 1.000000e+00 in 35940 cells on zone 100 
  2128  1.0203e-02  3.6485e-04  3.3782e-04  1.0060e-02  6.8398e-04  5.0225e-04  9.7793e+01  2.6191e+00  7.4839e-05  7.4839e-05  2:39:43 9872

 Reversed flow on 21 faces (66.1% area) of pressure-inlet 41.

 absolute pressure limited to 1.000000e+00 in 35943 cells on zone 100 
  2129  1.0180e-02  3.6439e-04  3.3795e-04  1.0037e-02  6.8465e-04  5.0200e-04  9.7739e+01  2.6196e+00  7.4816e-05  7.4816e-05  2:38:40 9871

 Reversed flow on 20 faces (63.3% area) of pressure-inlet 41.

 absolute pressure limited to 1.000000e+00 in 35946 cells on zone 100 
  2130  1.0155e-02  3.6393e-04  3.3797e-04  1.0012e-02  6.8450e-04  5.0175e-04  9.7684e+01  2.6201e+00  7.4793e-05  7.4793e-05  2:54:17 9870

 Reversed flow on 21 faces (66.1% area) of pressure-inlet 41.

 absolute pressure limited to 1.000000e+00 in 35950 cells on zone 100 
  2131  1.0132e-02  3.6346e-04  3.3780e-04  9.9894e-03  6.8496e-04  5.0150e-04  9.7629e+01  2.6205e+00  7.4769e-05  7.4769e-05  2:50:36 9869

 Reversed flow on 20 faces (63.3% area) of pressure-inlet 41.
Absolute pressure limited to 1.000000e+00 in 395345 cells during the last 11 iterations

 absolute pressure limited to 1.000000e+00 in 35951 cells on zone 100 

  iter  continuity  x-velocity  y-velocity      energy           k       omega  exit-stati   exit-mach  mass-flow-  mass-flow-     time/iter
  2132  1.0109e-02  3.6300e-04  3.3759e-04  9.9665e-03  6.8491e-04  5.0124e-04  9.7575e+01  2.6210e+00  7.4746e-05  7.4746e-05  2:50:38 9868

 Reversed flow on 21 faces (66.1% area) of pressure-inlet 41.

 absolute pressure limited to 1.000000e+00 in 35955 cells on zone 100 
  2133  1.0087e-02  3.6254e-04  3.3720e-04  9.9451e-03  6.8525e-04  5.0099e-04  9.7521e+01  2.6215e+00  7.4723e-05  7.4723e-05  2:48:13 9867

 Reversed flow on 20 faces (63.3% area) of pressure-inlet 41.

 absolute pressure limited to 1.000000e+00 in 35960 cells on zone 100 
  2134  1.0066e-02  3.6208e-04  3.3672e-04  9.9242e-03  6.8526e-04  5.0074e-04  9.7466e+01  2.6219e+00  7.4700e-05  7.4700e-05  2:46:15 9866

 Reversed flow on 21 faces (66.1% area) of pressure-inlet 41.

 absolute pressure limited to 1.000000e+00 in 35967 cells on zone 100 
  2135  1.0047e-02  3.6163e-04  3.3610e-04  9.9044e-03  6.8554e-04  5.0049e-04  9.7412e+01  2.6224e+00  7.4677e-05  7.4677e-05  2:44:50 9865

 Reversed flow on 20 faces (63.3% area) of pressure-inlet 41.

 absolute pressure limited to 1.000000e+00 in 35968 cells on zone 100 
  2136  1.0027e-02  3.6117e-04  3.3539e-04  9.8850e-03  6.8560e-04  5.0024e-04  9.7357e+01  2.6229e+00  7.4654e-05  7.4654e-05  2:46:55 9864

 Reversed flow on 21 faces (66.1% area) of pressure-inlet 41.

 absolute pressure limited to 1.000000e+00 in 35973 cells on zone 100 
  2137  1.0009e-02  3.6073e-04  3.3456e-04  9.8670e-03  6.8582e-04  4.9998e-04  9.7303e+01  2.6233e+00  7.4630e-05  7.4630e-05  2:47:00 9863

 Reversed flow on 20 faces (63.3% area) of pressure-inlet 41.

 absolute pressure limited to 1.000000e+00 in 35977 cells on zone 100 
  2138  9.9917e-03  3.6028e-04  3.3360e-04  9.8494e-03  6.8592e-04  4.9973e-04  9.7249e+01  2.6238e+00  7.4607e-05  7.4607e-05  2:47:03 9862

 Reversed flow on 21 faces (66.1% area) of pressure-inlet 41.

 absolute pressure limited to 1.000000e+00 in 35978 cells on zone 100 
  2139  9.9757e-03  3.5984e-04  3.3253e-04  9.8333e-03  6.8611e-04  4.9948e-04  9.7195e+01  2.6243e+00  7.4584e-05  7.4584e-05  2:50:03 9861

 Reversed flow on 21 faces (66.1% area) of pressure-inlet 41.

 absolute pressure limited to 1.000000e+00 in 35980 cells on zone 100 
  2140  9.9593e-03  3.5939e-04  3.3134e-04  9.8168e-03  6.8625e-04  4.9923e-04  9.7140e+01  2.6248e+00  7.4561e-05  7.4561e-05  2:49:22 9860

 Reversed flow on 20 faces (63.3% area) of pressure-inlet 41.

 absolute pressure limited to 1.000000e+00 in 35982 cells on zone 100 
  2141  9.9465e-03  3.5895e-04  3.3008e-04  9.8038e-03  6.8652e-04  4.9898e-04  9.7086e+01  2.6252e+00  7.4538e-05  7.4538e-05  3:08:32 9859

 Reversed flow on 21 faces (66.1% area) of pressure-inlet 41.

 absolute pressure limited to 1.000000e+00 in 35984 cells on zone 100 
  2142  9.9324e-03  3.5852e-04  3.2868e-04  9.7895e-03  6.8650e-04  4.9872e-04  9.7032e+01  2.6257e+00  7.4515e-05  7.4515e-05  3:10:27 9858

 Reversed flow on 21 faces (66.1% area) of pressure-inlet 41.
Absolute pressure limited to 1.000000e+00 in 395746 cells during the last 11 iterations

 absolute pressure limited to 1.000000e+00 in 35987 cells on zone 100 

  iter  continuity  x-velocity  y-velocity      energy           k       omega  exit-stati   exit-mach  mass-flow-  mass-flow-     time/iter
  2143  9.9195e-03  3.5808e-04  3.2715e-04  9.7764e-03  6.8662e-04  4.9847e-04  9.6978e+01  2.6262e+00  7.4492e-05  7.4492e-05  3:07:26 9857

 Reversed flow on 20 faces (63.3% area) of pressure-inlet 41.

 absolute pressure limited to 1.000000e+00 in 35990 cells on zone 100 
  2144  9.9103e-03  3.5764e-04  3.2557e-04  9.7669e-03  6.8701e-04  4.9822e-04  9.6924e+01  2.6266e+00  7.4469e-05  7.4469e-05  3:04:47 9856

 Reversed flow on 21 faces (66.1% area) of pressure-inlet 41.

 absolute pressure limited to 1.000000e+00 in 35995 cells on zone 100 
  2145  9.8993e-03  3.5721e-04  3.2391e-04  9.7557e-03  6.8685e-04  4.9797e-04  9.6870e+01  2.6271e+00  7.4446e-05  7.4446e-05  3:02:38 9855

 Reversed flow on 21 faces (66.1% area) of pressure-inlet 41.

 absolute pressure limited to 1.000000e+00 in 35996 cells on zone 100 
  2146  9.8897e-03  3.5678e-04  3.2204e-04  9.7458e-03  6.8696e-04  4.9771e-04  9.6816e+01  2.6276e+00  7.4423e-05  7.4423e-05  3:00:33 9854

 Reversed flow on 20 faces (63.3% area) of pressure-inlet 41.

 absolute pressure limited to 1.000000e+00 in 36002 cells on zone 100 
  2147  9.8839e-03  3.5636e-04  3.2016e-04  9.7396e-03  6.8743e-04  4.9746e-04  9.6762e+01  2.6281e+00  7.4401e-05  7.4401e-05  2:58:44 9853

 Reversed flow on 21 faces (66.1% area) of pressure-inlet 41.

 absolute pressure limited to 1.000000e+00 in 36002 cells on zone 100 
  2148  9.8765e-03  3.5594e-04  3.1821e-04  9.7318e-03  6.8721e-04  4.9721e-04  9.6708e+01  2.6285e+00  7.4378e-05  7.4378e-05  2:58:37 9852

 Reversed flow on 21 faces (66.1% area) of pressure-inlet 41.

 absolute pressure limited to 1.000000e+00 in 36008 cells on zone 100 
  2149  9.8704e-03  3.5551e-04  3.1604e-04  9.7254e-03  6.8731e-04  4.9696e-04  9.6654e+01  2.6290e+00  7.4355e-05  7.4355e-05  3:01:10 9851

 Reversed flow on 21 faces (66.1% area) of pressure-inlet 41.

 absolute pressure limited to 1.000000e+00 in 36009 cells on zone 100 
  2150  9.8661e-03  3.5509e-04  3.1389e-04  9.7206e-03  6.8742e-04  4.9670e-04  9.6600e+01  2.6295e+00  7.4332e-05  7.4332e-05  3:02:57 9850

 Reversed flow on 20 faces (63.3% area) of pressure-inlet 41.

 absolute pressure limited to 1.000000e+00 in 36015 cells on zone 100 
  2151  9.8660e-03  3.5467e-04  3.1161e-04  9.7200e-03  6.8802e-04  4.9645e-04  9.6546e+01  2.6299e+00  7.4309e-05  7.4309e-05  3:00:25 9849

 Reversed flow on 21 faces (66.1% area) of pressure-inlet 41.

 absolute pressure limited to 1.000000e+00 in 36018 cells on zone 100 
  2152  9.8629e-03  3.5426e-04  3.0934e-04  9.7165e-03  6.8764e-04  4.9620e-04  9.6492e+01  2.6304e+00  7.4286e-05  7.4286e-05  3:18:40 9848

 Reversed flow on 21 faces (66.1% area) of pressure-inlet 41.

 absolute pressure limited to 1.000000e+00 in 36021 cells on zone 100 
  2153  9.8619e-03  3.5385e-04  3.0676e-04  9.7151e-03  6.8771e-04  4.9595e-04  9.6439e+01  2.6309e+00  7.4264e-05  7.4264e-05  3:15:19 9847

 Reversed flow on 21 faces (66.1% area) of pressure-inlet 41.
Absolute pressure limited to 1.000000e+00 in 396113 cells during the last 11 iterations

 absolute pressure limited to 1.000000e+00 in 36023 cells on zone 100 

  iter  continuity  x-velocity  y-velocity      energy           k       omega  exit-stati   exit-mach  mass-flow-  mass-flow-     time/iter
  2154  9.8627e-03  3.5344e-04  3.0424e-04  9.7154e-03  6.8782e-04  4.9569e-04  9.6385e+01  2.6314e+00  7.4241e-05  7.4241e-05  3:10:47 9846

 Reversed flow on 21 faces (66.1% area) of pressure-inlet 41.

 absolute pressure limited to 1.000000e+00 in 36024 cells on zone 100 
  2155  9.8650e-03  3.5303e-04  3.0161e-04  9.7172e-03  6.8791e-04  4.9544e-04  9.6331e+01  2.6318e+00  7.4218e-05  7.4218e-05  3:07:07 9845

 Reversed flow on 21 faces (66.1% area) of pressure-inlet 41.

 absolute pressure limited to 1.000000e+00 in 36025 cells on zone 100 
  2156  9.8686e-03  3.5263e-04  2.9890e-04  9.7203e-03  6.8798e-04  4.9519e-04  9.6277e+01  2.6323e+00  7.4195e-05  7.4195e-05  3:03:58 9844

 Reversed flow on 21 faces (66.1% area) of pressure-inlet 41.

 absolute pressure limited to 1.000000e+00 in 36026 cells on zone 100 
  2157  9.8735e-03  3.5223e-04  2.9612e-04  9.7247e-03  6.8805e-04  4.9493e-04  9.6224e+01  2.6328e+00  7.4173e-05  7.4173e-05  3:01:08 9843

 Reversed flow on 21 faces (66.1% area) of pressure-inlet 41.

 absolute pressure limited to 1.000000e+00 in 36030 cells on zone 100 
  2158  9.8796e-03  3.5184e-04  2.9328e-04  9.7303e-03  6.8811e-04  4.9468e-04  9.6170e+01  2.6333e+00  7.4150e-05  7.4150e-05  3:00:39 9842

 Reversed flow on 21 faces (66.1% area) of pressure-inlet 41.

 absolute pressure limited to 1.000000e+00 in 36034 cells on zone 100 
  2159  9.8870e-03  3.5146e-04  2.9037e-04  9.7371e-03  6.8818e-04  4.9443e-04  9.6117e+01  2.6338e+00  7.4127e-05  7.4127e-05  2:59:33 9841

 Reversed flow on 21 faces (66.1% area) of pressure-inlet 41.

 absolute pressure limited to 1.000000e+00 in 36038 cells on zone 100 
  2160  9.8955e-03  3.5109e-04  2.8741e-04  9.7450e-03  6.8825e-04  4.9417e-04  9.6063e+01  2.6342e+00  7.4105e-05  7.4105e-05  2:59:15 9840

 Reversed flow on 21 faces (66.1% area) of pressure-inlet 41.

 absolute pressure limited to 1.000000e+00 in 36039 cells on zone 100 
  2161  9.9050e-03  3.5072e-04  2.8439e-04  9.7540e-03  6.8832e-04  4.9392e-04  9.6010e+01  2.6347e+00  7.4082e-05  7.4082e-05  2:58:19 9839

 Reversed flow on 21 faces (66.1% area) of pressure-inlet 41.

 absolute pressure limited to 1.000000e+00 in 36042 cells on zone 100 
  2162  9.9156e-03  3.5035e-04  2.8132e-04  9.7640e-03  6.8839e-04  4.9367e-04  9.5956e+01  2.6352e+00  7.4059e-05  7.4059e-05  2:57:58 9838

 Reversed flow on 21 faces (66.1% area) of pressure-inlet 41.

 absolute pressure limited to 1.000000e+00 in 36045 cells on zone 100 
  2163  9.9270e-03  3.4998e-04  2.7819e-04  9.7749e-03  6.8846e-04  4.9342e-04  9.5903e+01  2.6357e+00  7.4037e-05  7.4037e-05  3:16:43 9837

 Reversed flow on 21 faces (66.1% area) of pressure-inlet 41.

 absolute pressure limited to 1.000000e+00 in 36047 cells on zone 100 
  2164  9.9394e-03  3.4963e-04  2.7503e-04  9.7867e-03  6.8853e-04  4.9316e-04  9.5850e+01  2.6361e+00  7.4014e-05  7.4014e-05  3:12:01 9836

 Reversed flow on 21 faces (66.1% area) of pressure-inlet 41.
Absolute pressure limited to 1.000000e+00 in 396431 cells during the last 11 iterations

 absolute pressure limited to 1.000000e+00 in 36052 cells on zone 100 

  iter  continuity  x-velocity  y-velocity      energy           k       omega  exit-stati   exit-mach  mass-flow-  mass-flow-     time/iter
  2165  9.9526e-03  3.4927e-04  2.7183e-04  9.7994e-03  6.8859e-04  4.9291e-04  9.5796e+01  2.6366e+00  7.3992e-05  7.3992e-05  3:08:19 9835

 Reversed flow on 21 faces (66.1% area) of pressure-inlet 41.

 absolute pressure limited to 1.000000e+00 in 36053 cells on zone 100 
  2166  9.9665e-03  3.4892e-04  2.6860e-04  9.8127e-03  6.8866e-04  4.9266e-04  9.5743e+01  2.6371e+00  7.3969e-05  7.3969e-05  3:08:48 9834

 Reversed flow on 21 faces (66.1% area) of pressure-inlet 41.

 absolute pressure limited to 1.000000e+00 in 36057 cells on zone 100 
  2167  9.9811e-03  3.4856e-04  2.6532e-04  9.8267e-03  6.8872e-04  4.9240e-04  9.5690e+01  2.6376e+00  7.3947e-05  7.3947e-05  3:05:51 9833

 Reversed flow on 21 faces (66.1% area) of pressure-inlet 41.

 absolute pressure limited to 1.000000e+00 in 36061 cells on zone 100 
  2168  9.9961e-03  3.4822e-04  2.6201e-04  9.8412e-03  6.8878e-04  4.9215e-04  9.5637e+01  2.6381e+00  7.3924e-05  7.3924e-05  3:04:38 9832

 Reversed flow on 21 faces (66.1% area) of pressure-inlet 41.

 absolute pressure limited to 1.000000e+00 in 36066 cells on zone 100 
  2169  1.0012e-02  3.4787e-04  2.5867e-04  9.8562e-03  6.8884e-04  4.9190e-04  9.5583e+01  2.6385e+00  7.3902e-05  7.3902e-05  3:01:33 9831

 Reversed flow on 21 faces (66.1% area) of pressure-inlet 41.

 absolute pressure limited to 1.000000e+00 in 36071 cells on zone 100 
  2170  1.0027e-02  3.4754e-04  2.5531e-04  9.8715e-03  6.8890e-04  4.9164e-04  9.5530e+01  2.6390e+00  7.3879e-05  7.3879e-05  3:03:41 9830

 Reversed flow on 21 faces (66.1% area) of pressure-inlet 41.

 absolute pressure limited to 1.000000e+00 in 36075 cells on zone 100 
  2171  1.0043e-02  3.4721e-04  2.5192e-04  9.8870e-03  6.8895e-04  4.9139e-04  9.5477e+01  2.6395e+00  7.3857e-05  7.3857e-05  3:01:24 9829

 Reversed flow on 21 faces (66.1% area) of pressure-inlet 41.

 absolute pressure limited to 1.000000e+00 in 36080 cells on zone 100 
  2172  1.0060e-02  3.4688e-04  2.4852e-04  9.9026e-03  6.8900e-04  4.9113e-04  9.5424e+01  2.6400e+00  7.3835e-05  7.3835e-05  3:02:21 9828

 Reversed flow on 21 faces (66.1% area) of pressure-inlet 41.

 absolute pressure limited to 1.000000e+00 in 36081 cells on zone 100 
  2173  1.0076e-02  3.4655e-04  2.4512e-04  9.9182e-03  6.8905e-04  4.9088e-04  9.5371e+01  2.6405e+00  7.3812e-05  7.3812e-05  3:00:09 9827

 Reversed flow on 21 faces (66.1% area) of pressure-inlet 41.

 absolute pressure limited to 1.000000e+00 in 36082 cells on zone 100 
  2174  1.0092e-02  3.4624e-04  2.4172e-04  9.9337e-03  6.8910e-04  4.9063e-04  9.5318e+01  2.6410e+00  7.3790e-05  7.3790e-05  3:18:45 9826

 Reversed flow on 21 faces (66.1% area) of pressure-inlet 41.

 absolute pressure limited to 1.000000e+00 in 36086 cells on zone 100 
  2175  1.0108e-02  3.4592e-04  2.3833e-04  9.9490e-03  6.8915e-04  4.9037e-04  9.5265e+01  2.6414e+00  7.3768e-05  7.3768e-05  3:16:54 9825

 Reversed flow on 21 faces (66.1% area) of pressure-inlet 41.
Absolute pressure limited to 1.000000e+00 in 396838 cells during the last 11 iterations

 absolute pressure limited to 1.000000e+00 in 36088 cells on zone 100 

  iter  continuity  x-velocity  y-velocity      energy           k       omega  exit-stati   exit-mach  mass-flow-  mass-flow-     time/iter
  2176  1.0123e-02  3.4562e-04  2.3498e-04  9.9639e-03  6.8920e-04  4.9012e-04  9.5213e+01  2.6419e+00  7.3745e-05  7.3745e-05  3:14:56 9824

 Reversed flow on 21 faces (66.1% area) of pressure-inlet 41.

 absolute pressure limited to 1.000000e+00 in 36091 cells on zone 100 
  2177  1.0138e-02  3.4532e-04  2.3167e-04  9.9784e-03  6.8924e-04  4.8987e-04  9.5160e+01  2.6424e+00  7.3723e-05  7.3723e-05  3:11:09 9823

 Reversed flow on 21 faces (66.1% area) of pressure-inlet 41.

 absolute pressure limited to 1.000000e+00 in 36094 cells on zone 100 
  2178  1.0152e-02  3.4502e-04  2.2840e-04  9.9924e-03  6.8928e-04  4.8961e-04  9.5107e+01  2.6429e+00  7.3701e-05  7.3701e-05  3:11:21 9822

 Reversed flow on 21 faces (66.1% area) of pressure-inlet 41.

 absolute pressure limited to 1.000000e+00 in 36100 cells on zone 100 
  2179  1.0166e-02  3.4473e-04  2.2521e-04  1.0006e-02  6.8933e-04  4.8936e-04  9.5054e+01  2.6434e+00  7.3679e-05  7.3679e-05  3:05:55 9821

 Reversed flow on 21 faces (66.1% area) of pressure-inlet 41.

 absolute pressure limited to 1.000000e+00 in 36101 cells on zone 100 
  2180  1.0179e-02  3.4443e-04  2.2208e-04  1.0018e-02  6.8937e-04  4.8910e-04  9.5002e+01  2.6439e+00  7.3657e-05  7.3657e-05  3:02:32 9820

 Reversed flow on 21 faces (66.1% area) of pressure-inlet 41.

 absolute pressure limited to 1.000000e+00 in 36106 cells on zone 100 
  2181  1.0191e-02  3.4415e-04  2.1905e-04  1.0030e-02  6.8942e-04  4.8885e-04  9.4949e+01  2.6443e+00  7.3634e-05  7.3634e-05  3:00:07 9819

 Reversed flow on 21 faces (66.1% area) of pressure-inlet 41.

 absolute pressure limited to 1.000000e+00 in 36113 cells on zone 100 
  2182  1.0203e-02  3.4387e-04  2.1611e-04  1.0041e-02  6.8946e-04  4.8859e-04  9.4896e+01  2.6448e+00  7.3612e-05  7.3612e-05  2:59:13 9818

 Reversed flow on 21 faces (66.1% area) of pressure-inlet 41.

 absolute pressure limited to 1.000000e+00 in 36115 cells on zone 100 
  2183  1.0213e-02  3.4359e-04  2.1328e-04  1.0051e-02  6.8950e-04  4.8834e-04  9.4844e+01  2.6453e+00  7.3590e-05  7.3590e-05  2:56:19 9817

 Reversed flow on 21 faces (66.1% area) of pressure-inlet 41.

 absolute pressure limited to 1.000000e+00 in 36121 cells on zone 100 
  2184  1.0222e-02  3.4331e-04  2.1055e-04  1.0060e-02  6.8954e-04  4.8809e-04  9.4791e+01  2.6458e+00  7.3568e-05  7.3568e-05  2:53:12 9816

 Reversed flow on 21 faces (66.1% area) of pressure-inlet 41.

 absolute pressure limited to 1.000000e+00 in 36121 cells on zone 100 
  2185  1.0231e-02  3.4305e-04  2.0794e-04  1.0068e-02  6.8958e-04  4.8783e-04  9.4739e+01  2.6463e+00  7.3546e-05  7.3546e-05  3:07:26 9815

 Reversed flow on 21 faces (66.1% area) of pressure-inlet 41.

 absolute pressure limited to 1.000000e+00 in 36121 cells on zone 100 
  2186  1.0238e-02  3.4278e-04  2.0544e-04  1.0075e-02  6.8961e-04  4.8758e-04  9.4687e+01  2.6468e+00  7.3524e-05  7.3524e-05  3:01:53 9814

 Reversed flow on 21 faces (66.1% area) of pressure-inlet 41.
Absolute pressure limited to 1.000000e+00 in 397245 cells during the last 11 iterations

 absolute pressure limited to 1.000000e+00 in 36124 cells on zone 100 

  iter  continuity  x-velocity  y-velocity      energy           k       omega  exit-stati   exit-mach  mass-flow-  mass-flow-     time/iter
  2187  1.0244e-02  3.4252e-04  2.0307e-04  1.0081e-02  6.8965e-04  4.8732e-04  9.4634e+01  2.6473e+00  7.3502e-05  7.3502e-05  3:12:54 9813

 Reversed flow on 21 faces (66.1% area) of pressure-inlet 41.

 absolute pressure limited to 1.000000e+00 in 36129 cells on zone 100 
  2188  1.0249e-02  3.4226e-04  2.0083e-04  1.0085e-02  6.8968e-04  4.8707e-04  9.4582e+01  2.6477e+00  7.3480e-05  7.3480e-05  3:08:08 9812

 Reversed flow on 21 faces (66.1% area) of pressure-inlet 41.

 absolute pressure limited to 1.000000e+00 in 36135 cells on zone 100 
  2189  1.0253e-02  3.4201e-04  1.9872e-04  1.0089e-02  6.8972e-04  4.8681e-04  9.4530e+01  2.6482e+00  7.3458e-05  7.3458e-05  3:01:02 9811

 Reversed flow on 21 faces (66.1% area) of pressure-inlet 41.

 absolute pressure limited to 1.000000e+00 in 36136 cells on zone 100 
  2190  1.0256e-02  3.4176e-04  1.9674e-04  1.0092e-02  6.8975e-04  4.8656e-04  9.4477e+01  2.6487e+00  7.3436e-05  7.3436e-05  2:55:20 9810

 Reversed flow on 21 faces (66.1% area) of pressure-inlet 41.

 absolute pressure limited to 1.000000e+00 in 36138 cells on zone 100 
  2191  1.0258e-02  3.4152e-04  1.9490e-04  1.0093e-02  6.8978e-04  4.8630e-04  9.4425e+01  2.6492e+00  7.3414e-05  7.3414e-05  2:50:43 9809

 Reversed flow on 21 faces (66.1% area) of pressure-inlet 41.

 absolute pressure limited to 1.000000e+00 in 36138 cells on zone 100 
  2192  1.0259e-02  3.4128e-04  1.9319e-04  1.0094e-02  6.8981e-04  4.8605e-04  9.4373e+01  2.6497e+00  7.3392e-05  7.3392e-05  2:46:12 9808

 Reversed flow on 21 faces (66.1% area) of pressure-inlet 41.

 absolute pressure limited to 1.000000e+00 in 36140 cells on zone 100 
  2193  1.0259e-02  3.4104e-04  1.9160e-04  1.0094e-02  6.8984e-04  4.8579e-04  9.4321e+01  2.6502e+00  7.3370e-05  7.3370e-05  2:42:47 9807

 Reversed flow on 21 faces (66.1% area) of pressure-inlet 41.

 absolute pressure limited to 1.000000e+00 in 36144 cells on zone 100 
  2194  1.0257e-02  3.4081e-04  1.9014e-04  1.0092e-02  6.8987e-04  4.8554e-04  9.4269e+01  2.6507e+00  7.3348e-05  7.3348e-05  2:39:53 9806

 Reversed flow on 21 faces (66.1% area) of pressure-inlet 41.

 absolute pressure limited to 1.000000e+00 in 36146 cells on zone 100 
  2195  1.0255e-02  3.4057e-04  1.8881e-04  1.0090e-02  6.8990e-04  4.8528e-04  9.4217e+01  2.6512e+00  7.3327e-05  7.3327e-05  2:37:24 9805

 Reversed flow on 21 faces (66.1% area) of pressure-inlet 41.

 absolute pressure limited to 1.000000e+00 in 36149 cells on zone 100 
  2196  1.0252e-02  3.4034e-04  1.8762e-04  1.0087e-02  6.8993e-04  4.8503e-04  9.4165e+01  2.6516e+00  7.3305e-05  7.3305e-05  2:57:40 9804

 Reversed flow on 21 faces (66.1% area) of pressure-inlet 41.

 absolute pressure limited to 1.000000e+00 in 36152 cells on zone 100 
  2197  1.0248e-02  3.4010e-04  1.8657e-04  1.0082e-02  6.8996e-04  4.8477e-04  9.4113e+01  2.6521e+00  7.3283e-05  7.3283e-05  2:53:08 9803

 Reversed flow on 21 faces (66.1% area) of pressure-inlet 41.
Absolute pressure limited to 1.000000e+00 in 397588 cells during the last 11 iterations

 absolute pressure limited to 1.000000e+00 in 36153 cells on zone 100 

  iter  continuity  x-velocity  y-velocity      energy           k       omega  exit-stati   exit-mach  mass-flow-  mass-flow-     time/iter
  2198  1.0243e-02  3.3987e-04  1.8569e-04  1.0077e-02  6.8998e-04  4.8452e-04  9.4061e+01  2.6526e+00  7.3261e-05  7.3261e-05  2:46:45 9802

 Reversed flow on 21 faces (66.1% area) of pressure-inlet 41.

 absolute pressure limited to 1.000000e+00 in 36157 cells on zone 100 
  2199  1.0236e-02  3.3965e-04  1.8495e-04  1.0071e-02  6.9001e-04  4.8426e-04  9.4009e+01  2.6531e+00  7.3239e-05  7.3239e-05  2:42:50 9801

 Reversed flow on 21 faces (66.1% area) of pressure-inlet 41.

 absolute pressure limited to 1.000000e+00 in 36160 cells on zone 100 
  2200  1.0229e-02  3.3943e-04  1.8435e-04  1.0064e-02  6.9004e-04  4.8401e-04  9.3958e+01  2.6536e+00  7.3218e-05  7.3218e-05  2:38:58 9800

 Reversed flow on 21 faces (66.1% area) of pressure-inlet 41.

 absolute pressure limited to 1.000000e+00 in 36162 cells on zone 100 
  2201  1.0221e-02  3.3922e-04  1.8390e-04  1.0056e-02  6.9006e-04  4.8375e-04  9.3906e+01  2.6541e+00  7.3196e-05  7.3196e-05  2:35:07 9799

 Reversed flow on 21 faces (66.1% area) of pressure-inlet 41.

 absolute pressure limited to 1.000000e+00 in 36165 cells on zone 100 
  2202  1.0212e-02  3.3900e-04  1.8360e-04  1.0047e-02  6.9008e-04  4.8350e-04  9.3854e+01  2.6546e+00  7.3174e-05  7.3174e-05  2:32:02 9798

 Reversed flow on 21 faces (66.1% area) of pressure-inlet 41.

 absolute pressure limited to 1.000000e+00 in 36170 cells on zone 100 
  2203  1.0202e-02  3.3879e-04  1.8343e-04  1.0037e-02  6.9011e-04  4.8324e-04  9.3803e+01  2.6551e+00  7.3152e-05  7.3152e-05  2:28:34 9797

 Reversed flow on 21 faces (66.1% area) of pressure-inlet 41.

 absolute pressure limited to 1.000000e+00 in 36175 cells on zone 100 
  2204  1.0191e-02  3.3857e-04  1.8342e-04  1.0026e-02  6.9013e-04  4.8299e-04  9.3751e+01  2.6556e+00  7.3131e-05  7.3131e-05  2:26:27 9796

 Reversed flow on 21 faces (66.1% area) of pressure-inlet 41.

 absolute pressure limited to 1.000000e+00 in 36178 cells on zone 100 
  2205  1.0179e-02  3.3836e-04  1.8356e-04  1.0014e-02  6.9015e-04  4.8273e-04  9.3699e+01  2.6561e+00  7.3109e-05  7.3109e-05  2:28:14 9795

 Reversed flow on 21 faces (66.1% area) of pressure-inlet 41.

 absolute pressure limited to 1.000000e+00 in 36181 cells on zone 100 
  2206  1.0166e-02  3.3815e-04  1.8384e-04  1.0001e-02  6.9016e-04  4.8248e-04  9.3648e+01  2.6565e+00  7.3087e-05  7.3087e-05  2:26:58 9794

 Reversed flow on 21 faces (66.1% area) of pressure-inlet 41.

 absolute pressure limited to 1.000000e+00 in 36186 cells on zone 100 
  2207  1.0152e-02  3.3794e-04  1.8426e-04  9.9871e-03  6.9018e-04  4.8222e-04  9.3596e+01  2.6570e+00  7.3066e-05  7.3066e-05  2:41:53 9793

 Reversed flow on 21 faces (66.1% area) of pressure-inlet 41.

 absolute pressure limited to 1.000000e+00 in 36189 cells on zone 100 
  2208  1.0137e-02  3.3773e-04  1.8481e-04  9.9725e-03  6.9020e-04  4.8197e-04  9.3545e+01  2.6575e+00  7.3044e-05  7.3044e-05  2:36:49 9792

 Reversed flow on 21 faces (66.1% area) of pressure-inlet 41.
Absolute pressure limited to 1.000000e+00 in 397948 cells during the last 11 iterations

 absolute pressure limited to 1.000000e+00 in 36190 cells on zone 100 

  iter  continuity  x-velocity  y-velocity      energy           k       omega  exit-stati   exit-mach  mass-flow-  mass-flow-     time/iter
  2209  1.0121e-02  3.3752e-04  1.8549e-04  9.9570e-03  6.9021e-04  4.8171e-04  9.3493e+01  2.6580e+00  7.3023e-05  7.3023e-05  2:33:32 9791

 Reversed flow on 21 faces (66.1% area) of pressure-inlet 41.

 absolute pressure limited to 1.000000e+00 in 36192 cells on zone 100 
  2210  1.0105e-02  3.3731e-04  1.8629e-04  9.9407e-03  6.9023e-04  4.8145e-04  9.3442e+01  2.6585e+00  7.3001e-05  7.3001e-05  2:32:02 9790

 Reversed flow on 21 faces (66.1% area) of pressure-inlet 41.

 absolute pressure limited to 1.000000e+00 in 36193 cells on zone 100 
  2211  1.0087e-02  3.3710e-04  1.8719e-04  9.9236e-03  6.9024e-04  4.8120e-04  9.3391e+01  2.6590e+00  7.2979e-05  7.2979e-05  2:33:07 9789

 Reversed flow on 21 faces (66.1% area) of pressure-inlet 41.

 absolute pressure limited to 1.000000e+00 in 36196 cells on zone 100 
  2212  1.0069e-02  3.3689e-04  1.8820e-04  9.9059e-03  6.9025e-04  4.8094e-04  9.3340e+01  2.6595e+00  7.2958e-05  7.2958e-05  2:32:57 9788

 Reversed flow on 21 faces (66.1% area) of pressure-inlet 41.

 absolute pressure limited to 1.000000e+00 in 36199 cells on zone 100 
  2213  1.0051e-02  3.3669e-04  1.8930e-04  9.8875e-03  6.9026e-04  4.8069e-04  9.3288e+01  2.6600e+00  7.2936e-05  7.2936e-05  2:30:40 9787

 Reversed flow on 21 faces (66.1% area) of pressure-inlet 41.

 absolute pressure limited to 1.000000e+00 in 36202 cells on zone 100 
  2214  1.0031e-02  3.3648e-04  1.9049e-04  9.8686e-03  6.9028e-04  4.8043e-04  9.3237e+01  2.6605e+00  7.2915e-05  7.2915e-05  2:28:39 9786

 Reversed flow on 21 faces (66.1% area) of pressure-inlet 41.

 absolute pressure limited to 1.000000e+00 in 36204 cells on zone 100 
  2215  1.0012e-02  3.3627e-04  1.9175e-04  9.8492e-03  6.9028e-04  4.8017e-04  9.3186e+01  2.6610e+00  7.2893e-05  7.2893e-05  2:27:49 9785

 Reversed flow on 21 faces (66.1% area) of pressure-inlet 41.

 absolute pressure limited to 1.000000e+00 in 36207 cells on zone 100 
[...]

 Reversed flow on 1 face (0.1% area) of pressure-outlet 50.

 absolute pressure limited to 1.000000e+00 in 39170 cells on zone 100 
 12000  7.7600e-05  2.1872e-06  2.3065e-06  1.8707e-05  2.2801e-05  2.8749e-05  3.0688e+01  3.9724e+00  4.3676e-05  4.3676e-05  0:00:00    0

Calculation complete.
(cx-gui-do cx-activate-item "Information*OK")
(cx-gui-do cx-activate-item "MenuBar*WriteSubMenu*Case & Data...")
(cx-gui-do cx-set-file-dialog-entries "Select File" '( "2DNozzle_2_12000.cas.h5") "CFF Case/Data Files (*.cas.h5 *.dat.h5 )")

Writing to SimonAsusLaptop:"C:/Users/Simon/Projects/MEng Electronics/Development of a Resistojet Thruster/2) Simulations/CFD/2D Nozzle Simulation/2DNozzle_2_12000.cas.h5" in NODE0 mode and compression level 1 ...
Grouping cells for Laplace smoothing ...
      234568 cells,     2 zones ...
      470119 faces,    10 zones ...
      235552 nodes,     1 zone  ...
  Done.
Done.

Additional data file quantities are not supported when writing in the default CFF format (.dat.h5 files).


Writing to SimonAsusLaptop:"C:/Users/Simon/Projects/MEng Electronics/Development of a Resistojet Thruster/2) Simulations/CFD/2D Nozzle Simulation/2DNozzle_2_12000.dat.h5" in NODE0 mode and compression level 1 ...
  Writing results.
Done.
(cx-gui-do cx-activate-item "Information*OK")
(cx-gui-do cx-activate-item "Ribbon*Frame1*Frame5(Solution)*Table1*Table3(Reports)*PushButton2(Definitions)")
(cx-gui-do cx-set-list-tree-selections "NavigationPane*Frame2*Table1*List_Tree2" (list "Solution|Report Definitions|out-total-outlet-enthalpy"))
(cx-gui-do cx-set-list-tree-selections "NavigationPane*Frame2*Table1*List_Tree2" (list "Solution|Report Definitions|out-total-outlet-enthalpy"))
(cx-gui-do cx-activate-item "NavigationPane*Frame2*Table1*List_Tree2")
(cx-gui-do cx-set-list-tree-selections "NavigationPane*Frame2*Table1*List_Tree2" (list "Solution|Report Definitions|out-total-outlet-enthalpy"))
(cx-gui-do cx-set-expression-entry "Expression Report Definition*Table1*ExpressionEntry2" '("Average(     SpecificTotalEnthalpy,     ['outlet'],     Weight='MassFlowRate' )" . 1))
(cx-gui-do cx-set-expression-entry "Expression Report Definition*Table1*ExpressionEntry2" '("Average(     SpecificTotalEnthalpy,     ['outlet'],     Weight='MassFlowRate' )" . 1))
(cx-gui-do cx-activate-item "Expression Report Definition*PanelButtons*PushButton4(Compute)")
                      Expression              [J/kg]
-------------------------------- -------------------
       out-total-outlet-enthalpy           478247.55
(cx-gui-do cx-activate-item "Expression Report Definition*PanelButtons*PushButton2(Cancel)")
(cx-gui-do cx-set-list-tree-selections "NavigationPane*Frame2*Table1*List_Tree2" (list "Solution|Report Definitions|out-total-enthalpy-retention"))
(cx-gui-do cx-set-list-tree-selections "NavigationPane*Frame2*Table1*List_Tree2" (list "Solution|Report Definitions|out-total-enthalpy-retention"))
(cx-gui-do cx-activate-item "NavigationPane*Frame2*Table1*List_Tree2")
(cx-gui-do cx-set-list-tree-selections "NavigationPane*Frame2*Table1*List_Tree2" (list "Solution|Report Definitions|out-total-enthalpy-retention"))
(cx-gui-do cx-activate-item "Expression Report Definition*PanelButtons*PushButton4(Compute)")
                      Expression                  []
-------------------------------- -------------------
    out-total-enthalpy-retention          0.96252313
(cx-gui-do cx-activate-item "Expression Report Definition*PanelButtons*PushButton2(Cancel)")
(cx-gui-do cx-set-list-tree-selections "NavigationPane*Frame2*Table1*List_Tree2" (list "Solution|Report Definitions|out-isp"))
(cx-gui-do cx-set-list-tree-selections "NavigationPane*Frame2*Table1*List_Tree2" (list "Solution|Report Definitions|out-isp"))
(cx-gui-do cx-set-list-tree-selections "NavigationPane*Frame2*Table1*List_Tree2" (list "Solution|Report Definitions|out-isp"))
(cx-gui-do cx-activate-item "NavigationPane*Frame2*Table1*List_Tree2")
(cx-gui-do cx-set-list-tree-selections "NavigationPane*Frame2*Table1*List_Tree2" (list "Solution|Report Definitions|out-isp"))
(cx-gui-do cx-activate-item "Expression Report Definition*PanelButtons*PushButton4(Compute)")
                      Expression                 [s]
-------------------------------- -------------------
                         out-isp           74.516583
(cx-gui-do cx-activate-item "Expression Report Definition*PanelButtons*PushButton2(Cancel)")
(cx-gui-do cx-set-list-tree-selections "NavigationPane*Frame2*Table1*List_Tree2" (list "Solution|Report Definitions|out-thrust"))
(cx-gui-do cx-set-list-tree-selections "NavigationPane*Frame2*Table1*List_Tree2" (list "Solution|Report Definitions|out-thrust"))
(cx-gui-do cx-set-list-tree-selections "NavigationPane*Frame2*Table1*List_Tree2" (list "Solution|Report Definitions|out-thrust"))
(cx-gui-do cx-activate-item "NavigationPane*Frame2*Table1*List_Tree2")
(cx-gui-do cx-set-list-tree-selections "NavigationPane*Frame2*Table1*List_Tree2" (list "Solution|Report Definitions|out-thrust"))
(cx-gui-do cx-activate-item "Expression Report Definition*PanelButtons*PushButton4(Compute)")
                      Expression          [kg/s m/s]
-------------------------------- -------------------
                      out-thrust         0.031916926
(cx-gui-do cx-activate-item "Expression Report Definition*PanelButtons*PushButton2(Cancel)")
(cx-gui-do cx-set-list-tree-selections "NavigationPane*Frame2*Table1*List_Tree2" (list "Solution|Report Definitions|mass-flow-rate_outlet"))
(cx-gui-do cx-set-list-tree-selections "NavigationPane*Frame2*Table1*List_Tree2" (list "Solution|Report Definitions|mass-flow-rate_outlet"))
(cx-gui-do cx-set-list-tree-selections "NavigationPane*Frame2*Table1*List_Tree2" (list "Solution|Report Definitions|mass-flow-rate_outlet"))
(cx-gui-do cx-activate-item "NavigationPane*Frame2*Table1*List_Tree2")
(cx-gui-do cx-set-list-tree-selections "NavigationPane*Frame2*Table1*List_Tree2" (list "Solution|Report Definitions|mass-flow-rate_outlet"))
(cx-gui-do cx-activate-item "Surface Report Definition*PanelButtons*PushButton4(Compute)")

                  Mass Flow Rate              [kg/s]
-------------------------------- -------------------
                          outlet       4.3676462e-05
(cx-gui-do cx-activate-item "Surface Report Definition*PanelButtons*PushButton2(Cancel)")
(cx-use-window-id 51)
(cx-use-window-id 51)
(build-popup-menu)
(cx-gui-do cx-activate-item "MenuBar*DisplaySubMenu*velocity-contour")
(cx-use-window-id 51)
(build-popup-menu)
(cx-gui-do cx-set-list-tree-selections "NavigationPane*Frame2*Table1*List_Tree2" (list "Results|Graphics|Vectors"))
(cx-gui-do cx-set-list-tree-selections "NavigationPane*Frame2*Table1*List_Tree2" (list "Results|Graphics|Contours"))
(cx-gui-do cx-set-list-tree-selections "NavigationPane*Frame2*Table1*List_Tree2" (list "Results|Graphics|Contours"))
(cx-gui-do cx-activate-item "NavigationPane*Frame2*Table1*List_Tree2")
(cx-gui-do cx-set-list-tree-selections "NavigationPane*Frame2*Table1*List_Tree2" (list "Results|Graphics|Contours"))
(cx-gui-do cx-activate-item "Contours*PanelButtons*PushButton2(Cancel)")
(cx-gui-do cx-set-list-tree-selections "NavigationPane*Frame2*Table1*List_Tree2" (list "Results|Graphics|Contours|velocity-contour"))
(cx-gui-do cx-set-list-tree-selections "NavigationPane*Frame2*Table1*List_Tree2" (list "Results|Graphics|Contours|velocity-contour"))
(cx-gui-do cx-activate-item "NavigationPane*Frame2*Table1*List_Tree2")
(cx-gui-do cx-set-list-tree-selections "NavigationPane*Frame2*Table1*List_Tree2" (list "Results|Graphics|Contours|velocity-contour"))
(cx-gui-do cx-set-list-selections "Contours*Table1*Frame3*Frame2*List2(Surfaces)" '( 4 22 21))
(cx-gui-do cx-activate-item "Contours*Table1*Frame3*Frame2*List2(Surfaces)")
(cx-gui-do cx-activate-item "Contours*PanelButtons*PushButton1(OK)")
(cx-gui-do cx-set-list-selections "Contours*Table1*Frame3*Frame2*List2(Surfaces)" '( 21))
(cx-gui-do cx-activate-item "Contours*Table1*Frame3*Frame2*List2(Surfaces)")
(cx-gui-do cx-activate-item "Contours*PanelButtons*PushButton4(Compute)")
(cx-gui-do cx-activate-item "Contours*PanelButtons*PushButton1(OK)")
(cx-gui-do cx-set-list-selections "Contours*Table1*Frame3*Frame2*List2(Surfaces)" '( 21 4 22))
(cx-gui-do cx-activate-item "Contours*Table1*Frame3*Frame2*List2(Surfaces)")
(cx-gui-do cx-activate-item "Contours*PanelButtons*PushButton1(OK)")
(cx-gui-do cx-set-list-selections "Contours*Table1*Frame3*Frame2*List2(Surfaces)" '( 21))
(cx-gui-do cx-activate-item "Contours*Table1*Frame3*Frame2*List2(Surfaces)")
(cx-gui-do cx-activate-item "Contours*PanelButtons*PushButton1(OK)")
(cx-gui-do cx-set-list-selections "Contours*Table1*Frame3*Frame2*List2(Surfaces)" '())
(cx-gui-do cx-activate-item "Contours*Table1*Frame3*Frame2*List2(Surfaces)")
(cx-gui-do cx-set-list-selections "Contours*Table1*Frame3*Frame2*List2(Surfaces)" '( 4 22))
(cx-gui-do cx-activate-item "Contours*Table1*Frame3*Frame2*List2(Surfaces)")
(cx-gui-do cx-activate-item "Contours*PanelButtons*PushButton1(OK)")
(cx-gui-do cx-activate-item "Contours*PanelButtons*PushButton2(Cancel)")
(cx-gui-do cx-set-list-tree-selections "NavigationPane*Frame2*Table1*List_Tree2" (list "Results|Graphics|Contours|mach-contour"))
(cx-gui-do cx-set-list-tree-selections "NavigationPane*Frame2*Table1*List_Tree2" (list "Results|Graphics|Contours|mach-contour"))
(cx-gui-do cx-activate-item "NavigationPane*Frame2*Table1*List_Tree2")
(cx-gui-do cx-set-list-tree-selections "NavigationPane*Frame2*Table1*List_Tree2" (list "Results|Graphics|Contours|mach-contour"))
(cx-gui-do cx-activate-item "Contours*PanelButtons*PushButton1(OK)")
(cx-gui-do cx-set-list-selections "Contours*Table1*Frame3*Frame2*List2(Surfaces)" '( 0 1 2 3 4 5 8 9 10 11 12 13 14 15 16 23))
(cx-gui-do cx-activate-item "Contours*Table1*Frame3*Frame2*List2(Surfaces)")
(cx-gui-do cx-activate-item "Contours*PanelButtons*PushButton1(OK)")
(cx-gui-do cx-set-list-selections "Contours*Table1*Frame3*Frame2*List2(Surfaces)" '( 0 1 2 3 4 5 8 9 10 11 12 13 14 15 16 23 22))
(cx-gui-do cx-activate-item "Contours*Table1*Frame3*Frame2*List2(Surfaces)")
(cx-gui-do cx-set-list-selections "Contours*Table1*Frame3*Frame2*List2(Surfaces)" '( 0 1 2 3 5 8 9 10 11 12 13 14 15 16 23 22))
(cx-gui-do cx-activate-item "Contours*Table1*Frame3*Frame2*List2(Surfaces)")
(cx-gui-do cx-activate-item "Contours*PanelButtons*PushButton4(Compute)")
(cx-gui-do cx-activate-item "Contours*PanelButtons*PushButton1(OK)")
(cx-use-window-id 51)
(cx-use-window-id 51)
(cxg-clear-all-selections (cx-active-window))
(cxg-add-surfaces-to-selection '() (cx-active-window))
(cx-gui-do cx-set-list-selections "Contours*Table1*Frame3*Frame2*List2(Surfaces)" '( 0 1 2 3 5 8 9 10 11 12 13 15 16 23 22))
(cx-gui-do cx-activate-item "Contours*Table1*Frame3*Frame2*List2(Surfaces)")
(cx-gui-do cx-set-list-selections "Contours*Table1*Frame3*Frame2*List2(Surfaces)" '( 0 1 2 3 5 8 9 10 11 12 15 16 23 22))
(cx-gui-do cx-activate-item "Contours*Table1*Frame3*Frame2*List2(Surfaces)")
(cx-gui-do cx-activate-item "Contours*PanelButtons*PushButton4(Compute)")
(cx-gui-do cx-activate-item "Contours*PanelButtons*PushButton1(OK)")
(cx-gui-do cx-set-list-selections "Contours*Table1*Frame3*Frame2*List2(Surfaces)" '( 0 1 2 3 5 8 9 10 11 15 16 23 22))
(cx-gui-do cx-activate-item "Contours*Table1*Frame3*Frame2*List2(Surfaces)")
(cx-gui-do cx-activate-item "Contours*PanelButtons*PushButton1(OK)")
(cx-gui-do cx-set-list-selections "Contours*Table1*Frame3*Frame2*List2(Surfaces)" '( 0 1 2 3 5 8 9 10 11 15 16 23 22 12))
(cx-gui-do cx-activate-item "Contours*Table1*Frame3*Frame2*List2(Surfaces)")
(cx-gui-do cx-set-list-selections "Contours*Table1*Frame3*Frame2*List2(Surfaces)" '( 0 1 2 3 5 8 9 10 11 15 16 23 22 12 13))
(cx-gui-do cx-activate-item "Contours*Table1*Frame3*Frame2*List2(Surfaces)")
(cx-gui-do cx-set-list-selections "Contours*Table1*Frame3*Frame2*List2(Surfaces)" '( 0 1 2 3 5 8 9 10 11 15 16 23 22 12 13 14))
(cx-gui-do cx-activate-item "Contours*Table1*Frame3*Frame2*List2(Surfaces)")
(cx-gui-do cx-activate-item "Contours*PanelButtons*PushButton1(OK)")
(cx-gui-do cx-activate-item "Contours*PanelButtons*PushButton2(Cancel)")
(cx-use-window-id 51)
(build-popup-menu)
(cx-gui-do cx-set-list-tree-selections "NavigationPane*Frame2*Table1*List_Tree2" (list "Results|Graphics|Contours|contour-pressure"))
(cx-gui-do cx-set-list-tree-selections "NavigationPane*Frame2*Table1*List_Tree2" (list "Results|Graphics|Contours|contour-pressure"))
(cx-gui-do cx-activate-item "NavigationPane*Frame2*Table1*List_Tree2")
(cx-gui-do cx-set-list-tree-selections "NavigationPane*Frame2*Table1*List_Tree2" (list "Results|Graphics|Contours|contour-pressure"))
(cx-gui-do cx-set-list-selections "Contours*Table1*Frame3*Frame2*List2(Surfaces)" '( 4 22))
(cx-gui-do cx-activate-item "Contours*Table1*Frame3*Frame2*List2(Surfaces)")
(cx-gui-do cx-activate-item "Contours*PanelButtons*PushButton1(OK)")
(cx-gui-do cx-activate-item "Contours*PanelButtons*PushButton2(Cancel)")
(cx-gui-do cx-set-list-tree-selections "NavigationPane*Frame2*Table1*List_Tree2" (list "Results|Graphics|Contours|mach-contour"))
(cx-gui-do cx-set-list-tree-selections "NavigationPane*Frame2*Table1*List_Tree2" (list "Results|Graphics|Contours|mach-contour"))
(cx-gui-do cx-activate-item "NavigationPane*Frame2*Table1*List_Tree2")
(cx-gui-do cx-set-list-tree-selections "NavigationPane*Frame2*Table1*List_Tree2" (list "Results|Graphics|Contours|mach-contour"))
(cx-gui-do cx-activate-item "Contours*PanelButtons*PushButton1(OK)")
(cx-gui-do cx-set-list-selections "Contours*Table1*Frame3*Frame2*List2(Surfaces)" '( 0 1 2 3 5 8 9 10 11 15 16 23 22 12 13 14 4))
(cx-gui-do cx-activate-item "Contours*Table1*Frame3*Frame2*List2(Surfaces)")
(cx-gui-do cx-activate-item "Contours*PanelButtons*PushButton1(OK)")
(cx-gui-do cx-activate-item "Contours*PanelButtons*PushButton2(Cancel)")
(cx-gui-do cx-set-list-tree-selections "NavigationPane*Frame2*Table1*List_Tree2" (list "Results|Graphics|Contours|contour-temperature"))
(cx-gui-do cx-set-list-tree-selections "NavigationPane*Frame2*Table1*List_Tree2" (list "Results|Graphics|Contours|contour-temperature"))
(cx-gui-do cx-activate-item "NavigationPane*Frame2*Table1*List_Tree2")
(cx-gui-do cx-set-list-tree-selections "NavigationPane*Frame2*Table1*List_Tree2" (list "Results|Graphics|Contours|contour-temperature"))
(cx-gui-do cx-activate-item "Contours*PanelButtons*PushButton1(OK)")
(cx-gui-do cx-activate-item "Contours*PanelButtons*PushButton2(Cancel)")
(cx-gui-do cx-set-list-tree-selections "NavigationPane*Frame2*Table1*List_Tree2" (list "Results|Graphics|Contours|contour-1"))
(cx-gui-do cx-set-list-tree-selections "NavigationPane*Frame2*Table1*List_Tree2" (list "Results|Graphics|Contours|contour-1"))
(cx-gui-do cx-activate-item "NavigationPane*Frame2*Table1*List_Tree2")
(cx-gui-do cx-set-list-tree-selections "NavigationPane*Frame2*Table1*List_Tree2" (list "Results|Graphics|Contours|contour-1"))
(cx-gui-do cx-activate-item "Contours*PanelButtons*PushButton1(OK)")
(cx-gui-do cx-set-list-selections "Contours*Table1*Frame3*Table1*DropDownList2" '( 9))
(cx-gui-do cx-activate-item "Contours*Table1*Frame3*Table1*DropDownList2")
(cx-gui-do cx-activate-item "Contours*PanelButtons*PushButton1(OK)")
(cx-gui-do cx-activate-item "Contours*PanelButtons*PushButton2(Cancel)")
(cx-gui-do cx-set-list-tree-selections "NavigationPane*Frame2*Table1*List_Tree2" (list "Setup|Boundary Conditions|Outlet"))
(cx-gui-do cx-set-list-tree-selections "NavigationPane*Frame2*Table1*List_Tree2" (list "Setup|Boundary Conditions|Wall|convergingside (wall, id=46)"))
(cx-gui-do cx-set-list-tree-selections "NavigationPane*Frame2*Table1*List_Tree2" (list "Setup|Boundary Conditions|Wall|divergingside (wall, id=44)"))
(cx-gui-do cx-set-list-tree-selections "NavigationPane*Frame2*Table1*List_Tree2" (list "Setup|Boundary Conditions|Wall|divergingside (wall, id=44)"))
(cx-gui-do cx-activate-item "NavigationPane*Frame2*Table1*List_Tree2")
(cx-gui-do cx-set-list-tree-selections "NavigationPane*Frame2*Table1*List_Tree2" (list "Setup|Boundary Conditions|Wall|divergingside (wall, id=44)"))
(cx-gui-do cx-activate-tab-index "Wall*Frame4" 0)
(cx-gui-do cx-activate-tab-index "Wall*Frame4" 1)
(cx-gui-do cx-activate-tab-index "Wall*Frame4" 0)
(cx-gui-do cx-activate-tab-index "Wall*Frame4" 2)
(cx-gui-do cx-activate-tab-index "Wall*Frame4" 0)
(cx-gui-do cx-activate-tab-index "Wall*Frame4" 3)
(cx-gui-do cx-activate-tab-index "Wall*Frame4" 0)
(cx-gui-do cx-activate-tab-index "Wall*Frame4" 4)
(cx-gui-do cx-activate-tab-index "Wall*Frame4" 0)
(cx-gui-do cx-activate-tab-index "Wall*Frame4" 5)
(cx-gui-do cx-activate-tab-index "Wall*Frame4" 0)
(cx-gui-do cx-activate-tab-index "Wall*Frame4" 6)
(cx-gui-do cx-activate-tab-index "Wall*Frame4" 0)
(cx-gui-do cx-activate-tab-index "Wall*Frame4" 7)
(cx-gui-do cx-activate-tab-index "Wall*Frame4" 0)
(cx-gui-do cx-activate-tab-index "Wall*Frame4" 8)
(cx-gui-do cx-activate-tab-index "Wall*Frame4" 0)
(cx-gui-do cx-activate-tab-index "Wall*Frame4" 9)
(cx-gui-do cx-activate-tab-index "Wall*Frame4" 0)
(cx-gui-do cx-activate-tab-index "Wall*Frame4" 10)
(cx-gui-do cx-activate-tab-index "Wall*Frame4" 0)
(cx-gui-do cx-activate-tab-index "Wall*Frame4*Frame8(Wall Film)*Frame1*Frame2" 0)
(cx-gui-do cx-activate-tab-index "Wall*Frame4*Frame8(Wall Film)*Frame1*Frame2" 1)
(cx-gui-do cx-activate-tab-index "Wall*Frame4*Frame8(Wall Film)*Frame1*Frame2" 0)
(cx-gui-do cx-activate-tab-index "Wall*Frame4*Frame8(Wall Film)*Frame1*Frame2" 2)
(cx-gui-do cx-activate-tab-index "Wall*Frame4*Frame8(Wall Film)*Frame1*Frame2" 0)
(cx-gui-do cx-activate-tab-index "Wall*Frame4*Frame8(Wall Film)*Frame1*Frame2" 3)
(cx-gui-do cx-activate-tab-index "Wall*Frame4*Frame8(Wall Film)*Frame1*Frame2" 0)
(cx-gui-do cx-activate-tab-index "Wall*Frame4*Frame8(Wall Film)*Frame1*Frame2" 4)
(cx-gui-do cx-activate-tab-index "Wall*Frame4*Frame8(Wall Film)*Frame1*Frame2" 0)
(cx-gui-do cx-activate-tab-index "Wall*Frame4*Frame8(Wall Film)*Frame1*Frame2" 5)
(cx-gui-do cx-activate-tab-index "Wall*Frame4*Frame8(Wall Film)*Frame1*Frame2" 0)
(cx-gui-do cx-activate-tab-index "Wall*Frame4*Frame8(Wall Film)*Frame1*Frame2" 6)
(cx-gui-do cx-activate-tab-index "Wall*Frame4*Frame8(Wall Film)*Frame1*Frame2" 0)
(cx-gui-do cx-activate-item "Wall*PanelButtons*PushButton2(Cancel)")
(cx-gui-do cx-set-list-tree-selections "NavigationPane*Frame2*Table1*List_Tree2" (list "Setup|Boundary Conditions|Wall|divergingside (wall, id=44)"))
(cx-gui-do cx-set-list-tree-selections "NavigationPane*Frame2*Table1*List_Tree2" (list "Setup|Boundary Conditions|Wall|divergingside (wall, id=44)"))
(cx-gui-do cx-list-tree-right-click "NavigationPane*Frame2*Table1*List_Tree2" )
(cx-gui-do cx-activate-item "MenuBar*PopupMenuTree-divergingside (wall, id=44)*Edit...")
(cx-gui-do cx-activate-item "Wall*PanelButtons*PushButton2(Cancel)")
(cx-gui-do cx-set-list-tree-selections "NavigationPane*Frame2*Table1*List_Tree2" (list "Setup|Boundary Conditions|Wall|divergingside (wall, id=44)"))
(cx-gui-do cx-set-list-tree-selections "NavigationPane*Frame2*Table1*List_Tree2" (list "Setup|Boundary Conditions|Wall|divergingside (wall, id=44)"))
(cx-gui-do cx-activate-item "NavigationPane*Frame2*Table1*List_Tree2")
(cx-gui-do cx-set-list-tree-selections "NavigationPane*Frame2*Table1*List_Tree2" (list "Setup|Boundary Conditions|Wall|divergingside (wall, id=44)"))
(cx-gui-do cx-activate-item "Wall*PanelButtons*PushButton2(Cancel)")
(cx-use-window-id 51)
(build-popup-menu)
(cx-gui-do cx-activate-item "MenuBar*DisplaySubMenu*contour-temperature")
(cx-use-window-id 51)
(build-popup-menu)
(cx-gui-do cx-activate-item "MenuBar*DisplaySubMenu*velocity-contour")
/exit y
(cx-gui-do cx-activate-item "Question*OK")

Posting ANSYS Product Improvement Program performance data 
Done.
Auto-Transcript Stop Time:  00:56:28, 18 Jul 2026 South Africa Standard Time 
Total Transcript Time: 4 Hour 27 Minute 26 Second.
